## This file was generated by AeroDyn_Inflow_Driver on Apr-24-2023 at 15:45:27
## This file contains output channels requested from the OutList section of the AD15 and IfW input filespy_ad_driver.out
#
#
#
#
     Time               RtAeroCp                 RtAeroCt                 RtAeroCq                  RtTSR                   RtSpeed                   RtSkew                 B1Azimuth                B1N1VDisx                B1N1VDisy                B1N1VDisz                B1N2VDisx                B1N2VDisy                B1N2VDisz                B1N3VDisx                B1N3VDisy                B1N3VDisz                 B1N1STVx                 B1N1STVy                 B1N1STVz                 B1N2STVx                 B1N2STVy                 B1N2STVz                 B1N3STVx                 B1N3STVy                 B1N3STVz                B1N1AxInd                B1N2AxInd                B1N3AxInd                B1N1Alpha                B1N2Alpha                B1N3Alpha                B1N1Theta                B1N2Theta                B1N3Theta                Wind1VelX                Wind1VelY                Wind1VelZ        
      (s)                 (-)                      (-)                      (-)                      (-)                     (rpm)                    (deg)                    (deg)                    (m/s)                    (m/s)                    (m/s)                    (m/s)                    (m/s)                    (m/s)                    (m/s)                    (m/s)                    (m/s)                    (m/s)                    (m/s)                    (m/s)                    (m/s)                    (m/s)                    (m/s)                    (m/s)                    (m/s)                    (m/s)                     (-)                      (-)                      (-)                     (deg)                    (deg)                    (deg)                    (deg)                    (deg)                    (deg)                    (m/s)                    (m/s)                    (m/s)          
    0.0000                0.4867558                0.7838563                0.0651700                7.4690204                8.9999647                6.8990221               90.0005112                7.9764276                0.0000000                0.6136783                7.9764328                0.0000000                0.6136149                7.9764276                0.0000000                0.6136822                0.0000000               -1.4123700                0.0000000               -0.0204010              -26.5027142               -0.4672575               -0.0072905              -59.3195000               -0.1670120                1.0000000                0.2716856                1.0000000              -13.3080378                4.3905711               -0.1060000               13.3080378                7.7945848                0.1060000                8.0000000               -0.0000000                0.0000000
    0.0125                0.4747339                0.7930485                0.0616443                7.7011857                9.0041418                7.4676352               90.5957031                7.9764280                0.0113213                0.6135692                7.9763918                0.0113213                0.6140390                7.9763341                0.0113213                0.6147907                0.0011947               -1.4126130               -0.0030257                0.0557222              -26.5183563               -0.4701951                0.7162359              -59.3686981               -0.1704238                1.0000000                0.2728666                1.0000000              -13.3078671                4.2500448               -0.1058821               13.3078671                7.7952390                0.1058821                8.0000000               -0.0000000                0.0000000
    0.0250                0.4624234                0.7996328                0.0584127                7.9164810                9.0070057                8.0343180               91.1600189                7.9764276                0.0226503                0.6132603                7.9762883                0.0226503                0.6150679                7.9760590                0.0226503                0.6180356                0.0026562               -1.4132243               -0.0057026                0.1299655              -26.5311928               -0.4726096                1.3260714              -59.4066391               -0.1731358                1.0000000                0.2740330                1.0000000              -13.3076439                4.1150112               -0.1063356               13.3076439                7.7948065                0.1063356                8.0000000               -0.0000000                0.0000000
    0.0375                0.4498600                0.8053960                0.0553065                8.1339397                9.0065203                8.6141109               91.7048187                7.9764237                0.0340450                0.6127875                7.9761143                0.0340450                0.6168001                7.9756298                0.0340450                0.6230312                0.0046527               -1.4139749               -0.0075936                0.2030643              -26.5403366               -0.4745929                1.9193065              -59.4542427               -0.1757718                1.0000000                0.2751416                1.0000000              -13.3076754                3.9839292               -0.1056179               13.3076754                7.7947674                0.1056179                8.0000000               -0.0000000                0.0000000
    0.0500                0.4377503                0.8102123                0.0524672                8.3433094                9.0022335                9.1928892               92.2285538                7.9764175                0.0453554                0.6121312                7.9758806                0.0453554                0.6190864                7.9750638                0.0453554                0.6295269                0.0073475               -1.4147642               -0.0084294                0.2742006              -26.5445480               -0.4755342                2.4635818              -59.5087891               -0.1775281                1.0000000                0.2761415                1.0000000              -13.3078251                3.8597107               -0.1058154               13.3078251                7.7947083                0.1058154                8.0000000               -0.0000000                0.0000000
