## This file was generated by AeroDyn_Inflow_Driver on Oct-24-2022 at 12:43:38
## This file contains output channels requested from the OutList section of the AD15 and IfW input filespy_ad_driver.out
#
#
#
#
     Time               RtFldCp                  RtFldCt                  RtFldCq                   RtTSR                 AB1N001VUndx             AB1N002VUndx             AB1N003VUndx             AB1N004VUndx             AB1N005VUndx             AB1N006VUndx             AB1N007VUndx             AB1N008VUndx             AB1N009VUndx             AB1N010VUndx             AB1N011VUndx             AB1N012VUndx             AB1N013VUndx             AB1N014VUndx             AB1N015VUndx             AB1N016VUndx             AB1N017VUndx             AB1N018VUndx             AB1N019VUndx             AB2N001VUndx             AB2N002VUndx             AB2N003VUndx             AB2N004VUndx             AB2N005VUndx             AB2N006VUndx             AB2N007VUndx             AB2N008VUndx             AB2N009VUndx             AB2N010VUndx             AB2N011VUndx             AB2N012VUndx             AB2N013VUndx             AB2N014VUndx             AB2N015VUndx             AB2N016VUndx             AB2N017VUndx             AB2N018VUndx             AB2N019VUndx             AB3N001VUndx             AB3N002VUndx             AB3N003VUndx             AB3N004VUndx             AB3N005VUndx             AB3N006VUndx             AB3N007VUndx             AB3N008VUndx             AB3N009VUndx             AB3N010VUndx             AB3N011VUndx             AB3N012VUndx             AB3N013VUndx             AB3N014VUndx             AB3N015VUndx             AB3N016VUndx             AB3N017VUndx             AB3N018VUndx             AB3N019VUndx             AB1N001VUndy             AB1N002VUndy             AB1N003VUndy             AB1N004VUndy             AB1N005VUndy             AB1N006VUndy             AB1N007VUndy             AB1N008VUndy             AB1N009VUndy             AB1N010VUndy             AB1N011VUndy             AB1N012VUndy             AB1N013VUndy             AB1N014VUndy             AB1N015VUndy             AB1N016VUndy             AB1N017VUndy             AB1N018VUndy             AB1N019VUndy             AB2N001VUndy             AB2N002VUndy             AB2N003VUndy             AB2N004VUndy             AB2N005VUndy             AB2N006VUndy             AB2N007VUndy             AB2N008VUndy             AB2N009VUndy             AB2N010VUndy             AB2N011VUndy             AB2N012VUndy             AB2N013VUndy             AB2N014VUndy             AB2N015VUndy             AB2N016VUndy             AB2N017VUndy             AB2N018VUndy             AB2N019VUndy             AB3N001VUndy             AB3N002VUndy             AB3N003VUndy             AB3N004VUndy             AB3N005VUndy             AB3N006VUndy             AB3N007VUndy             AB3N008VUndy             AB3N009VUndy             AB3N010VUndy             AB3N011VUndy             AB3N012VUndy             AB3N013VUndy             AB3N014VUndy             AB3N015VUndy             AB3N016VUndy             AB3N017VUndy             AB3N018VUndy             AB3N019VUndy             AB1N001VUndz             AB1N002VUndz             AB1N003VUndz             AB1N004VUndz             AB1N005VUndz             AB1N006VUndz             AB1N007VUndz             AB1N008VUndz             AB1N009VUndz             AB1N010VUndz             AB1N011VUndz             AB1N012VUndz             AB1N013VUndz             AB1N014VUndz             AB1N015VUndz             AB1N016VUndz             AB1N017VUndz             AB1N018VUndz             AB1N019VUndz             AB2N001VUndz             AB2N002VUndz             AB2N003VUndz             AB2N004VUndz             AB2N005VUndz             AB2N006VUndz             AB2N007VUndz             AB2N008VUndz             AB2N009VUndz             AB2N010VUndz             AB2N011VUndz             AB2N012VUndz             AB2N013VUndz             AB2N014VUndz             AB2N015VUndz             AB2N016VUndz             AB2N017VUndz             AB2N018VUndz             AB2N019VUndz             AB3N001VUndz             AB3N002VUndz             AB3N003VUndz             AB3N004VUndz             AB3N005VUndz             AB3N006VUndz             AB3N007VUndz             AB3N008VUndz             AB3N009VUndz             AB3N010VUndz             AB3N011VUndz             AB3N012VUndz             AB3N013VUndz             AB3N014VUndz             AB3N015VUndz             AB3N016VUndz             AB3N017VUndz             AB3N018VUndz             AB3N019VUndz             AB1N001VDisx             AB1N002VDisx             AB1N003VDisx             AB1N004VDisx             AB1N005VDisx             AB1N006VDisx             AB1N007VDisx             AB1N008VDisx             AB1N009VDisx             AB1N010VDisx             AB1N011VDisx             AB1N012VDisx             AB1N013VDisx             AB1N014VDisx             AB1N015VDisx             AB1N016VDisx             AB1N017VDisx             AB1N018VDisx             AB1N019VDisx             AB2N001VDisx             AB2N002VDisx             AB2N003VDisx             AB2N004VDisx             AB2N005VDisx             AB2N006VDisx             AB2N007VDisx             AB2N008VDisx             AB2N009VDisx             AB2N010VDisx             AB2N011VDisx             AB2N012VDisx             AB2N013VDisx             AB2N014VDisx             AB2N015VDisx             AB2N016VDisx             AB2N017VDisx             AB2N018VDisx             AB2N019VDisx             AB3N001VDisx             AB3N002VDisx             AB3N003VDisx             AB3N004VDisx             AB3N005VDisx             AB3N006VDisx             AB3N007VDisx             AB3N008VDisx             AB3N009VDisx             AB3N010VDisx             AB3N011VDisx             AB3N012VDisx             AB3N013VDisx             AB3N014VDisx             AB3N015VDisx             AB3N016VDisx             AB3N017VDisx             AB3N018VDisx             AB3N019VDisx             AB1N001VDisy             AB1N002VDisy             AB1N003VDisy             AB1N004VDisy             AB1N005VDisy             AB1N006VDisy             AB1N007VDisy             AB1N008VDisy             AB1N009VDisy             AB1N010VDisy             AB1N011VDisy             AB1N012VDisy             AB1N013VDisy             AB1N014VDisy             AB1N015VDisy             AB1N016VDisy             AB1N017VDisy             AB1N018VDisy             AB1N019VDisy             AB2N001VDisy             AB2N002VDisy             AB2N003VDisy             AB2N004VDisy             AB2N005VDisy             AB2N006VDisy             AB2N007VDisy             AB2N008VDisy             AB2N009VDisy             AB2N010VDisy             AB2N011VDisy             AB2N012VDisy             AB2N013VDisy             AB2N014VDisy             AB2N015VDisy             AB2N016VDisy             AB2N017VDisy             AB2N018VDisy             AB2N019VDisy             AB3N001VDisy             AB3N002VDisy             AB3N003VDisy             AB3N004VDisy             AB3N005VDisy             AB3N006VDisy             AB3N007VDisy             AB3N008VDisy             AB3N009VDisy             AB3N010VDisy             AB3N011VDisy             AB3N012VDisy             AB3N013VDisy             AB3N014VDisy             AB3N015VDisy             AB3N016VDisy             AB3N017VDisy             AB3N018VDisy             AB3N019VDisy             AB1N001VDisz             AB1N002VDisz             AB1N003VDisz             AB1N004VDisz             AB1N005VDisz             AB1N006VDisz             AB1N007VDisz             AB1N008VDisz             AB1N009VDisz             AB1N010VDisz             AB1N011VDisz             AB1N012VDisz             AB1N013VDisz             AB1N014VDisz             AB1N015VDisz             AB1N016VDisz             AB1N017VDisz             AB1N018VDisz             AB1N019VDisz             AB2N001VDisz             AB2N002VDisz             AB2N003VDisz             AB2N004VDisz             AB2N005VDisz             AB2N006VDisz             AB2N007VDisz             AB2N008VDisz             AB2N009VDisz             AB2N010VDisz             AB2N011VDisz             AB2N012VDisz             AB2N013VDisz             AB2N014VDisz             AB2N015VDisz             AB2N016VDisz             AB2N017VDisz             AB2N018VDisz             AB2N019VDisz             AB3N001VDisz             AB3N002VDisz             AB3N003VDisz             AB3N004VDisz             AB3N005VDisz             AB3N006VDisz             AB3N007VDisz             AB3N008VDisz             AB3N009VDisz             AB3N010VDisz             AB3N011VDisz             AB3N012VDisz             AB3N013VDisz             AB3N014VDisz             AB3N015VDisz             AB3N016VDisz             AB3N017VDisz             AB3N018VDisz             AB3N019VDisz             AB1N001STVx              AB1N002STVx              AB1N003STVx              AB1N004STVx              AB1N005STVx              AB1N006STVx              AB1N007STVx              AB1N008STVx              AB1N009STVx              AB1N010STVx              AB1N011STVx              AB1N012STVx              AB1N013STVx              AB1N014STVx              AB1N015STVx              AB1N016STVx              AB1N017STVx              AB1N018STVx              AB1N019STVx              AB2N001STVx              AB2N002STVx              AB2N003STVx              AB2N004STVx              AB2N005STVx              AB2N006STVx              AB2N007STVx              AB2N008STVx              AB2N009STVx              AB2N010STVx              AB2N011STVx              AB2N012STVx              AB2N013STVx              AB2N014STVx              AB2N015STVx              AB2N016STVx              AB2N017STVx              AB2N018STVx              AB2N019STVx              AB3N001STVx              AB3N002STVx              AB3N003STVx              AB3N004STVx              AB3N005STVx              AB3N006STVx              AB3N007STVx              AB3N008STVx              AB3N009STVx              AB3N010STVx              AB3N011STVx              AB3N012STVx              AB3N013STVx              AB3N014STVx              AB3N015STVx              AB3N016STVx              AB3N017STVx              AB3N018STVx              AB3N019STVx              AB1N001STVy              AB1N002STVy              AB1N003STVy              AB1N004STVy              AB1N005STVy              AB1N006STVy              AB1N007STVy              AB1N008STVy              AB1N009STVy              AB1N010STVy              AB1N011STVy              AB1N012STVy              AB1N013STVy              AB1N014STVy              AB1N015STVy              AB1N016STVy              AB1N017STVy              AB1N018STVy              AB1N019STVy              AB2N001STVy              AB2N002STVy              AB2N003STVy              AB2N004STVy              AB2N005STVy              AB2N006STVy              AB2N007STVy              AB2N008STVy              AB2N009STVy              AB2N010STVy              AB2N011STVy              AB2N012STVy              AB2N013STVy              AB2N014STVy              AB2N015STVy              AB2N016STVy              AB2N017STVy              AB2N018STVy              AB2N019STVy              AB3N001STVy              AB3N002STVy              AB3N003STVy              AB3N004STVy              AB3N005STVy              AB3N006STVy              AB3N007STVy              AB3N008STVy              AB3N009STVy              AB3N010STVy              AB3N011STVy              AB3N012STVy              AB3N013STVy              AB3N014STVy              AB3N015STVy              AB3N016STVy              AB3N017STVy              AB3N018STVy              AB3N019STVy              AB1N001STVz              AB1N002STVz              AB1N003STVz              AB1N004STVz              AB1N005STVz              AB1N006STVz              AB1N007STVz              AB1N008STVz              AB1N009STVz              AB1N010STVz              AB1N011STVz              AB1N012STVz              AB1N013STVz              AB1N014STVz              AB1N015STVz              AB1N016STVz              AB1N017STVz              AB1N018STVz              AB1N019STVz              AB2N001STVz              AB2N002STVz              AB2N003STVz              AB2N004STVz              AB2N005STVz              AB2N006STVz              AB2N007STVz              AB2N008STVz              AB2N009STVz              AB2N010STVz              AB2N011STVz              AB2N012STVz              AB2N013STVz              AB2N014STVz              AB2N015STVz              AB2N016STVz              AB2N017STVz              AB2N018STVz              AB2N019STVz              AB3N001STVz              AB3N002STVz              AB3N003STVz              AB3N004STVz              AB3N005STVz              AB3N006STVz              AB3N007STVz              AB3N008STVz              AB3N009STVz              AB3N010STVz              AB3N011STVz              AB3N012STVz              AB3N013STVz              AB3N014STVz              AB3N015STVz              AB3N016STVz              AB3N017STVz              AB3N018STVz              AB3N019STVz              AB1N001VRel              AB1N002VRel              AB1N003VRel              AB1N004VRel              AB1N005VRel              AB1N006VRel              AB1N007VRel              AB1N008VRel              AB1N009VRel              AB1N010VRel              AB1N011VRel              AB1N012VRel              AB1N013VRel              AB1N014VRel              AB1N015VRel              AB1N016VRel              AB1N017VRel              AB1N018VRel              AB1N019VRel              AB2N001VRel              AB2N002VRel              AB2N003VRel              AB2N004VRel              AB2N005VRel              AB2N006VRel              AB2N007VRel              AB2N008VRel              AB2N009VRel              AB2N010VRel              AB2N011VRel              AB2N012VRel              AB2N013VRel              AB2N014VRel              AB2N015VRel              AB2N016VRel              AB2N017VRel              AB2N018VRel              AB2N019VRel              AB3N001VRel              AB3N002VRel              AB3N003VRel              AB3N004VRel              AB3N005VRel              AB3N006VRel              AB3N007VRel              AB3N008VRel              AB3N009VRel              AB3N010VRel              AB3N011VRel              AB3N012VRel              AB3N013VRel              AB3N014VRel              AB3N015VRel              AB3N016VRel              AB3N017VRel              AB3N018VRel              AB3N019VRel              AB1N001DynP              AB1N002DynP              AB1N003DynP              AB1N004DynP              AB1N005DynP              AB1N006DynP              AB1N007DynP              AB1N008DynP              AB1N009DynP              AB1N010DynP              AB1N011DynP              AB1N012DynP              AB1N013DynP              AB1N014DynP              AB1N015DynP              AB1N016DynP              AB1N017DynP              AB1N018DynP              AB1N019DynP              AB2N001DynP              AB2N002DynP              AB2N003DynP              AB2N004DynP              AB2N005DynP              AB2N006DynP              AB2N007DynP              AB2N008DynP              AB2N009DynP              AB2N010DynP              AB2N011DynP              AB2N012DynP              AB2N013DynP              AB2N014DynP              AB2N015DynP              AB2N016DynP              AB2N017DynP              AB2N018DynP              AB2N019DynP              AB3N001DynP              AB3N002DynP              AB3N003DynP              AB3N004DynP              AB3N005DynP              AB3N006DynP              AB3N007DynP              AB3N008DynP              AB3N009DynP              AB3N010DynP              AB3N011DynP              AB3N012DynP              AB3N013DynP              AB3N014DynP              AB3N015DynP              AB3N016DynP              AB3N017DynP              AB3N018DynP              AB3N019DynP               AB1N001Re                AB1N002Re                AB1N003Re                AB1N004Re                AB1N005Re                AB1N006Re                AB1N007Re                AB1N008Re                AB1N009Re                AB1N010Re                AB1N011Re                AB1N012Re                AB1N013Re                AB1N014Re                AB1N015Re                AB1N016Re                AB1N017Re                AB1N018Re                AB1N019Re                AB2N001Re                AB2N002Re                AB2N003Re                AB2N004Re                AB2N005Re                AB2N006Re                AB2N007Re                AB2N008Re                AB2N009Re                AB2N010Re                AB2N011Re                AB2N012Re                AB2N013Re                AB2N014Re                AB2N015Re                AB2N016Re                AB2N017Re                AB2N018Re                AB2N019Re                AB3N001Re                AB3N002Re                AB3N003Re                AB3N004Re                AB3N005Re                AB3N006Re                AB3N007Re                AB3N008Re                AB3N009Re                AB3N010Re                AB3N011Re                AB3N012Re                AB3N013Re                AB3N014Re                AB3N015Re                AB3N016Re                AB3N017Re                AB3N018Re                AB3N019Re                 AB1N001M                 AB1N002M                 AB1N003M                 AB1N004M                 AB1N005M                 AB1N006M                 AB1N007M                 AB1N008M                 AB1N009M                 AB1N010M                 AB1N011M                 AB1N012M                 AB1N013M                 AB1N014M                 AB1N015M                 AB1N016M                 AB1N017M                 AB1N018M                 AB1N019M                 AB2N001M                 AB2N002M                 AB2N003M                 AB2N004M                 AB2N005M                 AB2N006M                 AB2N007M                 AB2N008M                 AB2N009M                 AB2N010M                 AB2N011M                 AB2N012M                 AB2N013M                 AB2N014M                 AB2N015M                 AB2N016M                 AB2N017M                 AB2N018M                 AB2N019M                 AB3N001M                 AB3N002M                 AB3N003M                 AB3N004M                 AB3N005M                 AB3N006M                 AB3N007M                 AB3N008M                 AB3N009M                 AB3N010M                 AB3N011M                 AB3N012M                 AB3N013M                 AB3N014M                 AB3N015M                 AB3N016M                 AB3N017M                 AB3N018M                 AB3N019M               AB1N001Vindx             AB1N002Vindx             AB1N003Vindx             AB1N004Vindx             AB1N005Vindx             AB1N006Vindx             AB1N007Vindx             AB1N008Vindx             AB1N009Vindx             AB1N010Vindx             AB1N011Vindx             AB1N012Vindx             AB1N013Vindx             AB1N014Vindx             AB1N015Vindx             AB1N016Vindx             AB1N017Vindx             AB1N018Vindx             AB1N019Vindx             AB2N001Vindx             AB2N002Vindx             AB2N003Vindx             AB2N004Vindx             AB2N005Vindx             AB2N006Vindx             AB2N007Vindx             AB2N008Vindx             AB2N009Vindx             AB2N010Vindx             AB2N011Vindx             AB2N012Vindx             AB2N013Vindx             AB2N014Vindx             AB2N015Vindx             AB2N016Vindx             AB2N017Vindx             AB2N018Vindx             AB2N019Vindx             AB3N001Vindx             AB3N002Vindx             AB3N003Vindx             AB3N004Vindx             AB3N005Vindx             AB3N006Vindx             AB3N007Vindx             AB3N008Vindx             AB3N009Vindx             AB3N010Vindx             AB3N011Vindx             AB3N012Vindx             AB3N013Vindx             AB3N014Vindx             AB3N015Vindx             AB3N016Vindx             AB3N017Vindx             AB3N018Vindx             AB3N019Vindx             AB1N001Vindy             AB1N002Vindy             AB1N003Vindy             AB1N004Vindy             AB1N005Vindy             AB1N006Vindy             AB1N007Vindy             AB1N008Vindy             AB1N009Vindy             AB1N010Vindy             AB1N011Vindy             AB1N012Vindy             AB1N013Vindy             AB1N014Vindy             AB1N015Vindy             AB1N016Vindy             AB1N017Vindy             AB1N018Vindy             AB1N019Vindy             AB2N001Vindy             AB2N002Vindy             AB2N003Vindy             AB2N004Vindy             AB2N005Vindy             AB2N006Vindy             AB2N007Vindy             AB2N008Vindy             AB2N009Vindy             AB2N010Vindy             AB2N011Vindy             AB2N012Vindy             AB2N013Vindy             AB2N014Vindy             AB2N015Vindy             AB2N016Vindy             AB2N017Vindy             AB2N018Vindy             AB2N019Vindy             AB3N001Vindy             AB3N002Vindy             AB3N003Vindy             AB3N004Vindy             AB3N005Vindy             AB3N006Vindy             AB3N007Vindy             AB3N008Vindy             AB3N009Vindy             AB3N010Vindy             AB3N011Vindy             AB3N012Vindy             AB3N013Vindy             AB3N014Vindy             AB3N015Vindy             AB3N016Vindy             AB3N017Vindy             AB3N018Vindy             AB3N019Vindy             AB1N001AxInd             AB1N002AxInd             AB1N003AxInd             AB1N004AxInd             AB1N005AxInd             AB1N006AxInd             AB1N007AxInd             AB1N008AxInd             AB1N009AxInd             AB1N010AxInd             AB1N011AxInd             AB1N012AxInd             AB1N013AxInd             AB1N014AxInd             AB1N015AxInd             AB1N016AxInd             AB1N017AxInd             AB1N018AxInd             AB1N019AxInd             AB2N001AxInd             AB2N002AxInd             AB2N003AxInd             AB2N004AxInd             AB2N005AxInd             AB2N006AxInd             AB2N007AxInd             AB2N008AxInd             AB2N009AxInd             AB2N010AxInd             AB2N011AxInd             AB2N012AxInd             AB2N013AxInd             AB2N014AxInd             AB2N015AxInd             AB2N016AxInd             AB2N017AxInd             AB2N018AxInd             AB2N019AxInd             AB3N001AxInd             AB3N002AxInd             AB3N003AxInd             AB3N004AxInd             AB3N005AxInd             AB3N006AxInd             AB3N007AxInd             AB3N008AxInd             AB3N009AxInd             AB3N010AxInd             AB3N011AxInd             AB3N012AxInd             AB3N013AxInd             AB3N014AxInd             AB3N015AxInd             AB3N016AxInd             AB3N017AxInd             AB3N018AxInd             AB3N019AxInd             AB1N001TnInd             AB1N002TnInd             AB1N003TnInd             AB1N004TnInd             AB1N005TnInd             AB1N006TnInd             AB1N007TnInd             AB1N008TnInd             AB1N009TnInd             AB1N010TnInd             AB1N011TnInd             AB1N012TnInd             AB1N013TnInd             AB1N014TnInd             AB1N015TnInd             AB1N016TnInd             AB1N017TnInd             AB1N018TnInd             AB1N019TnInd             AB2N001TnInd             AB2N002TnInd             AB2N003TnInd             AB2N004TnInd             AB2N005TnInd             AB2N006TnInd             AB2N007TnInd             AB2N008TnInd             AB2N009TnInd             AB2N010TnInd             AB2N011TnInd             AB2N012TnInd             AB2N013TnInd             AB2N014TnInd             AB2N015TnInd             AB2N016TnInd             AB2N017TnInd             AB2N018TnInd             AB2N019TnInd             AB3N001TnInd             AB3N002TnInd             AB3N003TnInd             AB3N004TnInd             AB3N005TnInd             AB3N006TnInd             AB3N007TnInd             AB3N008TnInd             AB3N009TnInd             AB3N010TnInd             AB3N011TnInd             AB3N012TnInd             AB3N013TnInd             AB3N014TnInd             AB3N015TnInd             AB3N016TnInd             AB3N017TnInd             AB3N018TnInd             AB3N019TnInd             AB1N001Alpha             AB1N002Alpha             AB1N003Alpha             AB1N004Alpha             AB1N005Alpha             AB1N006Alpha             AB1N007Alpha             AB1N008Alpha             AB1N009Alpha             AB1N010Alpha             AB1N011Alpha             AB1N012Alpha             AB1N013Alpha             AB1N014Alpha             AB1N015Alpha             AB1N016Alpha             AB1N017Alpha             AB1N018Alpha             AB1N019Alpha             AB2N001Alpha             AB2N002Alpha             AB2N003Alpha             AB2N004Alpha             AB2N005Alpha             AB2N006Alpha             AB2N007Alpha             AB2N008Alpha             AB2N009Alpha             AB2N010Alpha             AB2N011Alpha             AB2N012Alpha             AB2N013Alpha             AB2N014Alpha             AB2N015Alpha             AB2N016Alpha             AB2N017Alpha             AB2N018Alpha             AB2N019Alpha             AB3N001Alpha             AB3N002Alpha             AB3N003Alpha             AB3N004Alpha             AB3N005Alpha             AB3N006Alpha             AB3N007Alpha             AB3N008Alpha             AB3N009Alpha             AB3N010Alpha             AB3N011Alpha             AB3N012Alpha             AB3N013Alpha             AB3N014Alpha             AB3N015Alpha             AB3N016Alpha             AB3N017Alpha             AB3N018Alpha             AB3N019Alpha             AB1N001Theta             AB1N002Theta             AB1N003Theta             AB1N004Theta             AB1N005Theta             AB1N006Theta             AB1N007Theta             AB1N008Theta             AB1N009Theta             AB1N010Theta             AB1N011Theta             AB1N012Theta             AB1N013Theta             AB1N014Theta             AB1N015Theta             AB1N016Theta             AB1N017Theta             AB1N018Theta             AB1N019Theta             AB2N001Theta             AB2N002Theta             AB2N003Theta             AB2N004Theta             AB2N005Theta             AB2N006Theta             AB2N007Theta             AB2N008Theta             AB2N009Theta             AB2N010Theta             AB2N011Theta             AB2N012Theta             AB2N013Theta             AB2N014Theta             AB2N015Theta             AB2N016Theta             AB2N017Theta             AB2N018Theta             AB2N019Theta             AB3N001Theta             AB3N002Theta             AB3N003Theta             AB3N004Theta             AB3N005Theta             AB3N006Theta             AB3N007Theta             AB3N008Theta             AB3N009Theta             AB3N010Theta             AB3N011Theta             AB3N012Theta             AB3N013Theta             AB3N014Theta             AB3N015Theta             AB3N016Theta             AB3N017Theta             AB3N018Theta             AB3N019Theta              AB1N001Phi               AB1N002Phi               AB1N003Phi               AB1N004Phi               AB1N005Phi               AB1N006Phi               AB1N007Phi               AB1N008Phi               AB1N009Phi               AB1N010Phi               AB1N011Phi               AB1N012Phi               AB1N013Phi               AB1N014Phi               AB1N015Phi               AB1N016Phi               AB1N017Phi               AB1N018Phi               AB1N019Phi               AB2N001Phi               AB2N002Phi               AB2N003Phi               AB2N004Phi               AB2N005Phi               AB2N006Phi               AB2N007Phi               AB2N008Phi               AB2N009Phi               AB2N010Phi               AB2N011Phi               AB2N012Phi               AB2N013Phi               AB2N014Phi               AB2N015Phi               AB2N016Phi               AB2N017Phi               AB2N018Phi               AB2N019Phi               AB3N001Phi               AB3N002Phi               AB3N003Phi               AB3N004Phi               AB3N005Phi               AB3N006Phi               AB3N007Phi               AB3N008Phi               AB3N009Phi               AB3N010Phi               AB3N011Phi               AB3N012Phi               AB3N013Phi               AB3N014Phi               AB3N015Phi               AB3N016Phi               AB3N017Phi               AB3N018Phi               AB3N019Phi              AB1N001Curve             AB1N002Curve             AB1N003Curve             AB1N004Curve             AB1N005Curve             AB1N006Curve             AB1N007Curve             AB1N008Curve             AB1N009Curve             AB1N010Curve             AB1N011Curve             AB1N012Curve             AB1N013Curve             AB1N014Curve             AB1N015Curve             AB1N016Curve             AB1N017Curve             AB1N018Curve             AB1N019Curve             AB2N001Curve             AB2N002Curve             AB2N003Curve             AB2N004Curve             AB2N005Curve             AB2N006Curve             AB2N007Curve             AB2N008Curve             AB2N009Curve             AB2N010Curve             AB2N011Curve             AB2N012Curve             AB2N013Curve             AB2N014Curve             AB2N015Curve             AB2N016Curve             AB2N017Curve             AB2N018Curve             AB2N019Curve             AB3N001Curve             AB3N002Curve             AB3N003Curve             AB3N004Curve             AB3N005Curve             AB3N006Curve             AB3N007Curve             AB3N008Curve             AB3N009Curve             AB3N010Curve             AB3N011Curve             AB3N012Curve             AB3N013Curve             AB3N014Curve             AB3N015Curve             AB3N016Curve             AB3N017Curve             AB3N018Curve             AB3N019Curve              AB1N001Cl                AB1N002Cl                AB1N003Cl                AB1N004Cl                AB1N005Cl                AB1N006Cl                AB1N007Cl                AB1N008Cl                AB1N009Cl                AB1N010Cl                AB1N011Cl                AB1N012Cl                AB1N013Cl                AB1N014Cl                AB1N015Cl                AB1N016Cl                AB1N017Cl                AB1N018Cl                AB1N019Cl                AB2N001Cl                AB2N002Cl                AB2N003Cl                AB2N004Cl                AB2N005Cl                AB2N006Cl                AB2N007Cl                AB2N008Cl                AB2N009Cl                AB2N010Cl                AB2N011Cl                AB2N012Cl                AB2N013Cl                AB2N014Cl                AB2N015Cl                AB2N016Cl                AB2N017Cl                AB2N018Cl                AB2N019Cl                AB3N001Cl                AB3N002Cl                AB3N003Cl                AB3N004Cl                AB3N005Cl                AB3N006Cl                AB3N007Cl                AB3N008Cl                AB3N009Cl                AB3N010Cl                AB3N011Cl                AB3N012Cl                AB3N013Cl                AB3N014Cl                AB3N015Cl                AB3N016Cl                AB3N017Cl                AB3N018Cl                AB3N019Cl                AB1N001Cd                AB1N002Cd                AB1N003Cd                AB1N004Cd                AB1N005Cd                AB1N006Cd                AB1N007Cd                AB1N008Cd                AB1N009Cd                AB1N010Cd                AB1N011Cd                AB1N012Cd                AB1N013Cd                AB1N014Cd                AB1N015Cd                AB1N016Cd                AB1N017Cd                AB1N018Cd                AB1N019Cd                AB2N001Cd                AB2N002Cd                AB2N003Cd                AB2N004Cd                AB2N005Cd                AB2N006Cd                AB2N007Cd                AB2N008Cd                AB2N009Cd                AB2N010Cd                AB2N011Cd                AB2N012Cd                AB2N013Cd                AB2N014Cd                AB2N015Cd                AB2N016Cd                AB2N017Cd                AB2N018Cd                AB2N019Cd                AB3N001Cd                AB3N002Cd                AB3N003Cd                AB3N004Cd                AB3N005Cd                AB3N006Cd                AB3N007Cd                AB3N008Cd                AB3N009Cd                AB3N010Cd                AB3N011Cd                AB3N012Cd                AB3N013Cd                AB3N014Cd                AB3N015Cd                AB3N016Cd                AB3N017Cd                AB3N018Cd                AB3N019Cd                AB1N001Cm                AB1N002Cm                AB1N003Cm                AB1N004Cm                AB1N005Cm                AB1N006Cm                AB1N007Cm                AB1N008Cm                AB1N009Cm                AB1N010Cm                AB1N011Cm                AB1N012Cm                AB1N013Cm                AB1N014Cm                AB1N015Cm                AB1N016Cm                AB1N017Cm                AB1N018Cm                AB1N019Cm                AB2N001Cm                AB2N002Cm                AB2N003Cm                AB2N004Cm                AB2N005Cm                AB2N006Cm                AB2N007Cm                AB2N008Cm                AB2N009Cm                AB2N010Cm                AB2N011Cm                AB2N012Cm                AB2N013Cm                AB2N014Cm                AB2N015Cm                AB2N016Cm                AB2N017Cm                AB2N018Cm                AB2N019Cm                AB3N001Cm                AB3N002Cm                AB3N003Cm                AB3N004Cm                AB3N005Cm                AB3N006Cm                AB3N007Cm                AB3N008Cm                AB3N009Cm                AB3N010Cm                AB3N011Cm                AB3N012Cm                AB3N013Cm                AB3N014Cm                AB3N015Cm                AB3N016Cm                AB3N017Cm                AB3N018Cm                AB3N019Cm                AB1N001Cx                AB1N002Cx                AB1N003Cx                AB1N004Cx                AB1N005Cx                AB1N006Cx                AB1N007Cx                AB1N008Cx                AB1N009Cx                AB1N010Cx                AB1N011Cx                AB1N012Cx                AB1N013Cx                AB1N014Cx                AB1N015Cx                AB1N016Cx                AB1N017Cx                AB1N018Cx                AB1N019Cx                AB2N001Cx                AB2N002Cx                AB2N003Cx                AB2N004Cx                AB2N005Cx                AB2N006Cx                AB2N007Cx                AB2N008Cx                AB2N009Cx                AB2N010Cx                AB2N011Cx                AB2N012Cx                AB2N013Cx                AB2N014Cx                AB2N015Cx                AB2N016Cx                AB2N017Cx                AB2N018Cx                AB2N019Cx                AB3N001Cx                AB3N002Cx                AB3N003Cx                AB3N004Cx                AB3N005Cx                AB3N006Cx                AB3N007Cx                AB3N008Cx                AB3N009Cx                AB3N010Cx                AB3N011Cx                AB3N012Cx                AB3N013Cx                AB3N014Cx                AB3N015Cx                AB3N016Cx                AB3N017Cx                AB3N018Cx                AB3N019Cx                AB1N001Cy                AB1N002Cy                AB1N003Cy                AB1N004Cy                AB1N005Cy                AB1N006Cy                AB1N007Cy                AB1N008Cy                AB1N009Cy                AB1N010Cy                AB1N011Cy                AB1N012Cy                AB1N013Cy                AB1N014Cy                AB1N015Cy                AB1N016Cy                AB1N017Cy                AB1N018Cy                AB1N019Cy                AB2N001Cy                AB2N002Cy                AB2N003Cy                AB2N004Cy                AB2N005Cy                AB2N006Cy                AB2N007Cy                AB2N008Cy                AB2N009Cy                AB2N010Cy                AB2N011Cy                AB2N012Cy                AB2N013Cy                AB2N014Cy                AB2N015Cy                AB2N016Cy                AB2N017Cy                AB2N018Cy                AB2N019Cy                AB3N001Cy                AB3N002Cy                AB3N003Cy                AB3N004Cy                AB3N005Cy                AB3N006Cy                AB3N007Cy                AB3N008Cy                AB3N009Cy                AB3N010Cy                AB3N011Cy                AB3N012Cy                AB3N013Cy                AB3N014Cy                AB3N015Cy                AB3N016Cy                AB3N017Cy                AB3N018Cy                AB3N019Cy                AB1N001Cn                AB1N002Cn                AB1N003Cn                AB1N004Cn                AB1N005Cn                AB1N006Cn                AB1N007Cn                AB1N008Cn                AB1N009Cn                AB1N010Cn                AB1N011Cn                AB1N012Cn                AB1N013Cn                AB1N014Cn                AB1N015Cn                AB1N016Cn                AB1N017Cn                AB1N018Cn                AB1N019Cn                AB2N001Cn                AB2N002Cn                AB2N003Cn                AB2N004Cn                AB2N005Cn                AB2N006Cn                AB2N007Cn                AB2N008Cn                AB2N009Cn                AB2N010Cn                AB2N011Cn                AB2N012Cn                AB2N013Cn                AB2N014Cn                AB2N015Cn                AB2N016Cn                AB2N017Cn                AB2N018Cn                AB2N019Cn                AB3N001Cn                AB3N002Cn                AB3N003Cn                AB3N004Cn                AB3N005Cn                AB3N006Cn                AB3N007Cn                AB3N008Cn                AB3N009Cn                AB3N010Cn                AB3N011Cn                AB3N012Cn                AB3N013Cn                AB3N014Cn                AB3N015Cn                AB3N016Cn                AB3N017Cn                AB3N018Cn                AB3N019Cn                AB1N001Ct                AB1N002Ct                AB1N003Ct                AB1N004Ct                AB1N005Ct                AB1N006Ct                AB1N007Ct                AB1N008Ct                AB1N009Ct                AB1N010Ct                AB1N011Ct                AB1N012Ct                AB1N013Ct                AB1N014Ct                AB1N015Ct                AB1N016Ct                AB1N017Ct                AB1N018Ct                AB1N019Ct                AB2N001Ct                AB2N002Ct                AB2N003Ct                AB2N004Ct                AB2N005Ct                AB2N006Ct                AB2N007Ct                AB2N008Ct                AB2N009Ct                AB2N010Ct                AB2N011Ct                AB2N012Ct                AB2N013Ct                AB2N014Ct                AB2N015Ct                AB2N016Ct                AB2N017Ct                AB2N018Ct                AB2N019Ct                AB3N001Ct                AB3N002Ct                AB3N003Ct                AB3N004Ct                AB3N005Ct                AB3N006Ct                AB3N007Ct                AB3N008Ct                AB3N009Ct                AB3N010Ct                AB3N011Ct                AB3N012Ct                AB3N013Ct                AB3N014Ct                AB3N015Ct                AB3N016Ct                AB3N017Ct                AB3N018Ct                AB3N019Ct                AB1N001Fl                AB1N002Fl                AB1N003Fl                AB1N004Fl                AB1N005Fl                AB1N006Fl                AB1N007Fl                AB1N008Fl                AB1N009Fl                AB1N010Fl                AB1N011Fl                AB1N012Fl                AB1N013Fl                AB1N014Fl                AB1N015Fl                AB1N016Fl                AB1N017Fl                AB1N018Fl                AB1N019Fl                AB2N001Fl                AB2N002Fl                AB2N003Fl                AB2N004Fl                AB2N005Fl                AB2N006Fl                AB2N007Fl                AB2N008Fl                AB2N009Fl                AB2N010Fl                AB2N011Fl                AB2N012Fl                AB2N013Fl                AB2N014Fl                AB2N015Fl                AB2N016Fl                AB2N017Fl                AB2N018Fl                AB2N019Fl                AB3N001Fl                AB3N002Fl                AB3N003Fl                AB3N004Fl                AB3N005Fl                AB3N006Fl                AB3N007Fl                AB3N008Fl                AB3N009Fl                AB3N010Fl                AB3N011Fl                AB3N012Fl                AB3N013Fl                AB3N014Fl                AB3N015Fl                AB3N016Fl                AB3N017Fl                AB3N018Fl                AB3N019Fl                AB1N001Fd                AB1N002Fd                AB1N003Fd                AB1N004Fd                AB1N005Fd                AB1N006Fd                AB1N007Fd                AB1N008Fd                AB1N009Fd                AB1N010Fd                AB1N011Fd                AB1N012Fd                AB1N013Fd                AB1N014Fd                AB1N015Fd                AB1N016Fd                AB1N017Fd                AB1N018Fd                AB1N019Fd                AB2N001Fd                AB2N002Fd                AB2N003Fd                AB2N004Fd                AB2N005Fd                AB2N006Fd                AB2N007Fd                AB2N008Fd                AB2N009Fd                AB2N010Fd                AB2N011Fd                AB2N012Fd                AB2N013Fd                AB2N014Fd                AB2N015Fd                AB2N016Fd                AB2N017Fd                AB2N018Fd                AB2N019Fd                AB3N001Fd                AB3N002Fd                AB3N003Fd                AB3N004Fd                AB3N005Fd                AB3N006Fd                AB3N007Fd                AB3N008Fd                AB3N009Fd                AB3N010Fd                AB3N011Fd                AB3N012Fd                AB3N013Fd                AB3N014Fd                AB3N015Fd                AB3N016Fd                AB3N017Fd                AB3N018Fd                AB3N019Fd                AB1N001Mm                AB1N002Mm                AB1N003Mm                AB1N004Mm                AB1N005Mm                AB1N006Mm                AB1N007Mm                AB1N008Mm                AB1N009Mm                AB1N010Mm                AB1N011Mm                AB1N012Mm                AB1N013Mm                AB1N014Mm                AB1N015Mm                AB1N016Mm                AB1N017Mm                AB1N018Mm                AB1N019Mm                AB2N001Mm                AB2N002Mm                AB2N003Mm                AB2N004Mm                AB2N005Mm                AB2N006Mm                AB2N007Mm                AB2N008Mm                AB2N009Mm                AB2N010Mm                AB2N011Mm                AB2N012Mm                AB2N013Mm                AB2N014Mm                AB2N015Mm                AB2N016Mm                AB2N017Mm                AB2N018Mm                AB2N019Mm                AB3N001Mm                AB3N002Mm                AB3N003Mm                AB3N004Mm                AB3N005Mm                AB3N006Mm                AB3N007Mm                AB3N008Mm                AB3N009Mm                AB3N010Mm                AB3N011Mm                AB3N012Mm                AB3N013Mm                AB3N014Mm                AB3N015Mm                AB3N016Mm                AB3N017Mm                AB3N018Mm                AB3N019Mm                AB1N001Fx                AB1N002Fx                AB1N003Fx                AB1N004Fx                AB1N005Fx                AB1N006Fx                AB1N007Fx                AB1N008Fx                AB1N009Fx                AB1N010Fx                AB1N011Fx                AB1N012Fx                AB1N013Fx                AB1N014Fx                AB1N015Fx                AB1N016Fx                AB1N017Fx                AB1N018Fx                AB1N019Fx                AB2N001Fx                AB2N002Fx                AB2N003Fx                AB2N004Fx                AB2N005Fx                AB2N006Fx                AB2N007Fx                AB2N008Fx                AB2N009Fx                AB2N010Fx                AB2N011Fx                AB2N012Fx                AB2N013Fx                AB2N014Fx                AB2N015Fx                AB2N016Fx                AB2N017Fx                AB2N018Fx                AB2N019Fx                AB3N001Fx                AB3N002Fx                AB3N003Fx                AB3N004Fx                AB3N005Fx                AB3N006Fx                AB3N007Fx                AB3N008Fx                AB3N009Fx                AB3N010Fx                AB3N011Fx                AB3N012Fx                AB3N013Fx                AB3N014Fx                AB3N015Fx                AB3N016Fx                AB3N017Fx                AB3N018Fx                AB3N019Fx                AB1N001Fy                AB1N002Fy                AB1N003Fy                AB1N004Fy                AB1N005Fy                AB1N006Fy                AB1N007Fy                AB1N008Fy                AB1N009Fy                AB1N010Fy                AB1N011Fy                AB1N012Fy                AB1N013Fy                AB1N014Fy                AB1N015Fy                AB1N016Fy                AB1N017Fy                AB1N018Fy                AB1N019Fy                AB2N001Fy                AB2N002Fy                AB2N003Fy                AB2N004Fy                AB2N005Fy                AB2N006Fy                AB2N007Fy                AB2N008Fy                AB2N009Fy                AB2N010Fy                AB2N011Fy                AB2N012Fy                AB2N013Fy                AB2N014Fy                AB2N015Fy                AB2N016Fy                AB2N017Fy                AB2N018Fy                AB2N019Fy                AB3N001Fy                AB3N002Fy                AB3N003Fy                AB3N004Fy                AB3N005Fy                AB3N006Fy                AB3N007Fy                AB3N008Fy                AB3N009Fy                AB3N010Fy                AB3N011Fy                AB3N012Fy                AB3N013Fy                AB3N014Fy                AB3N015Fy                AB3N016Fy                AB3N017Fy                AB3N018Fy                AB3N019Fy                AB1N001Fn                AB1N002Fn                AB1N003Fn                AB1N004Fn                AB1N005Fn                AB1N006Fn                AB1N007Fn                AB1N008Fn                AB1N009Fn                AB1N010Fn                AB1N011Fn                AB1N012Fn                AB1N013Fn                AB1N014Fn                AB1N015Fn                AB1N016Fn                AB1N017Fn                AB1N018Fn                AB1N019Fn                AB2N001Fn                AB2N002Fn                AB2N003Fn                AB2N004Fn                AB2N005Fn                AB2N006Fn                AB2N007Fn                AB2N008Fn                AB2N009Fn                AB2N010Fn                AB2N011Fn                AB2N012Fn                AB2N013Fn                AB2N014Fn                AB2N015Fn                AB2N016Fn                AB2N017Fn                AB2N018Fn                AB2N019Fn                AB3N001Fn                AB3N002Fn                AB3N003Fn                AB3N004Fn                AB3N005Fn                AB3N006Fn                AB3N007Fn                AB3N008Fn                AB3N009Fn                AB3N010Fn                AB3N011Fn                AB3N012Fn                AB3N013Fn                AB3N014Fn                AB3N015Fn                AB3N016Fn                AB3N017Fn                AB3N018Fn                AB3N019Fn                AB1N001Ft                AB1N002Ft                AB1N003Ft                AB1N004Ft                AB1N005Ft                AB1N006Ft                AB1N007Ft                AB1N008Ft                AB1N009Ft                AB1N010Ft                AB1N011Ft                AB1N012Ft                AB1N013Ft                AB1N014Ft                AB1N015Ft                AB1N016Ft                AB1N017Ft                AB1N018Ft                AB1N019Ft                AB2N001Ft                AB2N002Ft                AB2N003Ft                AB2N004Ft                AB2N005Ft                AB2N006Ft                AB2N007Ft                AB2N008Ft                AB2N009Ft                AB2N010Ft                AB2N011Ft                AB2N012Ft                AB2N013Ft                AB2N014Ft                AB2N015Ft                AB2N016Ft                AB2N017Ft                AB2N018Ft                AB2N019Ft                AB3N001Ft                AB3N002Ft                AB3N003Ft                AB3N004Ft                AB3N005Ft                AB3N006Ft                AB3N007Ft                AB3N008Ft                AB3N009Ft                AB3N010Ft                AB3N011Ft                AB3N012Ft                AB3N013Ft                AB3N014Ft                AB3N015Ft                AB3N016Ft                AB3N017Ft                AB3N018Ft                AB3N019Ft               AB1N001Clrnc             AB1N002Clrnc             AB1N003Clrnc             AB1N004Clrnc             AB1N005Clrnc             AB1N006Clrnc             AB1N007Clrnc             AB1N008Clrnc             AB1N009Clrnc             AB1N010Clrnc             AB1N011Clrnc             AB1N012Clrnc             AB1N013Clrnc             AB1N014Clrnc             AB1N015Clrnc             AB1N016Clrnc             AB1N017Clrnc             AB1N018Clrnc             AB1N019Clrnc             AB2N001Clrnc             AB2N002Clrnc             AB2N003Clrnc             AB2N004Clrnc             AB2N005Clrnc             AB2N006Clrnc             AB2N007Clrnc             AB2N008Clrnc             AB2N009Clrnc             AB2N010Clrnc             AB2N011Clrnc             AB2N012Clrnc             AB2N013Clrnc             AB2N014Clrnc             AB2N015Clrnc             AB2N016Clrnc             AB2N017Clrnc             AB2N018Clrnc             AB2N019Clrnc             AB3N001Clrnc             AB3N002Clrnc             AB3N003Clrnc             AB3N004Clrnc             AB3N005Clrnc             AB3N006Clrnc             AB3N007Clrnc             AB3N008Clrnc             AB3N009Clrnc             AB3N010Clrnc             AB3N011Clrnc             AB3N012Clrnc             AB3N013Clrnc             AB3N014Clrnc             AB3N015Clrnc             AB3N016Clrnc             AB3N017Clrnc             AB3N018Clrnc             AB3N019Clrnc              AB1N001Vx                AB1N002Vx                AB1N003Vx                AB1N004Vx                AB1N005Vx                AB1N006Vx                AB1N007Vx                AB1N008Vx                AB1N009Vx                AB1N010Vx                AB1N011Vx                AB1N012Vx                AB1N013Vx                AB1N014Vx                AB1N015Vx                AB1N016Vx                AB1N017Vx                AB1N018Vx                AB1N019Vx                AB2N001Vx                AB2N002Vx                AB2N003Vx                AB2N004Vx                AB2N005Vx                AB2N006Vx                AB2N007Vx                AB2N008Vx                AB2N009Vx                AB2N010Vx                AB2N011Vx                AB2N012Vx                AB2N013Vx                AB2N014Vx                AB2N015Vx                AB2N016Vx                AB2N017Vx                AB2N018Vx                AB2N019Vx                AB3N001Vx                AB3N002Vx                AB3N003Vx                AB3N004Vx                AB3N005Vx                AB3N006Vx                AB3N007Vx                AB3N008Vx                AB3N009Vx                AB3N010Vx                AB3N011Vx                AB3N012Vx                AB3N013Vx                AB3N014Vx                AB3N015Vx                AB3N016Vx                AB3N017Vx                AB3N018Vx                AB3N019Vx                AB1N001Vy                AB1N002Vy                AB1N003Vy                AB1N004Vy                AB1N005Vy                AB1N006Vy                AB1N007Vy                AB1N008Vy                AB1N009Vy                AB1N010Vy                AB1N011Vy                AB1N012Vy                AB1N013Vy                AB1N014Vy                AB1N015Vy                AB1N016Vy                AB1N017Vy                AB1N018Vy                AB1N019Vy                AB2N001Vy                AB2N002Vy                AB2N003Vy                AB2N004Vy                AB2N005Vy                AB2N006Vy                AB2N007Vy                AB2N008Vy                AB2N009Vy                AB2N010Vy                AB2N011Vy                AB2N012Vy                AB2N013Vy                AB2N014Vy                AB2N015Vy                AB2N016Vy                AB2N017Vy                AB2N018Vy                AB2N019Vy                AB3N001Vy                AB3N002Vy                AB3N003Vy                AB3N004Vy                AB3N005Vy                AB3N006Vy                AB3N007Vy                AB3N008Vy                AB3N009Vy                AB3N010Vy                AB3N011Vy                AB3N012Vy                AB3N013Vy                AB3N014Vy                AB3N015Vy                AB3N016Vy                AB3N017Vy                AB3N018Vy                AB3N019Vy              AB1N001GeomPhi           AB1N002GeomPhi           AB1N003GeomPhi           AB1N004GeomPhi           AB1N005GeomPhi           AB1N006GeomPhi           AB1N007GeomPhi           AB1N008GeomPhi           AB1N009GeomPhi           AB1N010GeomPhi           AB1N011GeomPhi           AB1N012GeomPhi           AB1N013GeomPhi           AB1N014GeomPhi           AB1N015GeomPhi           AB1N016GeomPhi           AB1N017GeomPhi           AB1N018GeomPhi           AB1N019GeomPhi           AB2N001GeomPhi           AB2N002GeomPhi           AB2N003GeomPhi           AB2N004GeomPhi           AB2N005GeomPhi           AB2N006GeomPhi           AB2N007GeomPhi           AB2N008GeomPhi           AB2N009GeomPhi           AB2N010GeomPhi           AB2N011GeomPhi           AB2N012GeomPhi           AB2N013GeomPhi           AB2N014GeomPhi           AB2N015GeomPhi           AB2N016GeomPhi           AB2N017GeomPhi           AB2N018GeomPhi           AB2N019GeomPhi           AB3N001GeomPhi           AB3N002GeomPhi           AB3N003GeomPhi           AB3N004GeomPhi           AB3N005GeomPhi           AB3N006GeomPhi           AB3N007GeomPhi           AB3N008GeomPhi           AB3N009GeomPhi           AB3N010GeomPhi           AB3N011GeomPhi           AB3N012GeomPhi           AB3N013GeomPhi           AB3N014GeomPhi           AB3N015GeomPhi           AB3N016GeomPhi           AB3N017GeomPhi           AB3N018GeomPhi           AB3N019GeomPhi             AB1N001Chi               AB1N002Chi               AB1N003Chi               AB1N004Chi               AB1N005Chi               AB1N006Chi               AB1N007Chi               AB1N008Chi               AB1N009Chi               AB1N010Chi               AB1N011Chi               AB1N012Chi               AB1N013Chi               AB1N014Chi               AB1N015Chi               AB1N016Chi               AB1N017Chi               AB1N018Chi               AB1N019Chi               AB2N001Chi               AB2N002Chi               AB2N003Chi               AB2N004Chi               AB2N005Chi               AB2N006Chi               AB2N007Chi               AB2N008Chi               AB2N009Chi               AB2N010Chi               AB2N011Chi               AB2N012Chi               AB2N013Chi               AB2N014Chi               AB2N015Chi               AB2N016Chi               AB2N017Chi               AB2N018Chi               AB2N019Chi               AB3N001Chi               AB3N002Chi               AB3N003Chi               AB3N004Chi               AB3N005Chi               AB3N006Chi               AB3N007Chi               AB3N008Chi               AB3N009Chi               AB3N010Chi               AB3N011Chi               AB3N012Chi               AB3N013Chi               AB3N014Chi               AB3N015Chi               AB3N016Chi               AB3N017Chi               AB3N018Chi               AB3N019Chi             AB1N001UA_Flag           AB1N002UA_Flag           AB1N003UA_Flag           AB1N004UA_Flag           AB1N005UA_Flag           AB1N006UA_Flag           AB1N007UA_Flag           AB1N008UA_Flag           AB1N009UA_Flag           AB1N010UA_Flag           AB1N011UA_Flag           AB1N012UA_Flag           AB1N013UA_Flag           AB1N014UA_Flag           AB1N015UA_Flag           AB1N016UA_Flag           AB1N017UA_Flag           AB1N018UA_Flag           AB1N019UA_Flag           AB2N001UA_Flag           AB2N002UA_Flag           AB2N003UA_Flag           AB2N004UA_Flag           AB2N005UA_Flag           AB2N006UA_Flag           AB2N007UA_Flag           AB2N008UA_Flag           AB2N009UA_Flag           AB2N010UA_Flag           AB2N011UA_Flag           AB2N012UA_Flag           AB2N013UA_Flag           AB2N014UA_Flag           AB2N015UA_Flag           AB2N016UA_Flag           AB2N017UA_Flag           AB2N018UA_Flag           AB2N019UA_Flag           AB3N001UA_Flag           AB3N002UA_Flag           AB3N003UA_Flag           AB3N004UA_Flag           AB3N005UA_Flag           AB3N006UA_Flag           AB3N007UA_Flag           AB3N008UA_Flag           AB3N009UA_Flag           AB3N010UA_Flag           AB3N011UA_Flag           AB3N012UA_Flag           AB3N013UA_Flag           AB3N014UA_Flag           AB3N015UA_Flag           AB3N016UA_Flag           AB3N017UA_Flag           AB3N018UA_Flag           AB3N019UA_Flag            AB1N001CpMin             AB1N002CpMin             AB1N003CpMin             AB1N004CpMin             AB1N005CpMin             AB1N006CpMin             AB1N007CpMin             AB1N008CpMin             AB1N009CpMin             AB1N010CpMin             AB1N011CpMin             AB1N012CpMin             AB1N013CpMin             AB1N014CpMin             AB1N015CpMin             AB1N016CpMin             AB1N017CpMin             AB1N018CpMin             AB1N019CpMin             AB2N001CpMin             AB2N002CpMin             AB2N003CpMin             AB2N004CpMin             AB2N005CpMin             AB2N006CpMin             AB2N007CpMin             AB2N008CpMin             AB2N009CpMin             AB2N010CpMin             AB2N011CpMin             AB2N012CpMin             AB2N013CpMin             AB2N014CpMin             AB2N015CpMin             AB2N016CpMin             AB2N017CpMin             AB2N018CpMin             AB2N019CpMin             AB3N001CpMin             AB3N002CpMin             AB3N003CpMin             AB3N004CpMin             AB3N005CpMin             AB3N006CpMin             AB3N007CpMin             AB3N008CpMin             AB3N009CpMin             AB3N010CpMin             AB3N011CpMin             AB3N012CpMin             AB3N013CpMin             AB3N014CpMin             AB3N015CpMin             AB3N016CpMin             AB3N017CpMin             AB3N018CpMin             AB3N019CpMin             AB1N001SgCav             AB1N002SgCav             AB1N003SgCav             AB1N004SgCav             AB1N005SgCav             AB1N006SgCav             AB1N007SgCav             AB1N008SgCav             AB1N009SgCav             AB1N010SgCav             AB1N011SgCav             AB1N012SgCav             AB1N013SgCav             AB1N014SgCav             AB1N015SgCav             AB1N016SgCav             AB1N017SgCav             AB1N018SgCav             AB1N019SgCav             AB2N001SgCav             AB2N002SgCav             AB2N003SgCav             AB2N004SgCav             AB2N005SgCav             AB2N006SgCav             AB2N007SgCav             AB2N008SgCav             AB2N009SgCav             AB2N010SgCav             AB2N011SgCav             AB2N012SgCav             AB2N013SgCav             AB2N014SgCav             AB2N015SgCav             AB2N016SgCav             AB2N017SgCav             AB2N018SgCav             AB2N019SgCav             AB3N001SgCav             AB3N002SgCav             AB3N003SgCav             AB3N004SgCav             AB3N005SgCav             AB3N006SgCav             AB3N007SgCav             AB3N008SgCav             AB3N009SgCav             AB3N010SgCav             AB3N011SgCav             AB3N012SgCav             AB3N013SgCav             AB3N014SgCav             AB3N015SgCav             AB3N016SgCav             AB3N017SgCav             AB3N018SgCav             AB3N019SgCav             AB1N001SigCr             AB1N002SigCr             AB1N003SigCr             AB1N004SigCr             AB1N005SigCr             AB1N006SigCr             AB1N007SigCr             AB1N008SigCr             AB1N009SigCr             AB1N010SigCr             AB1N011SigCr             AB1N012SigCr             AB1N013SigCr             AB1N014SigCr             AB1N015SigCr             AB1N016SigCr             AB1N017SigCr             AB1N018SigCr             AB1N019SigCr             AB2N001SigCr             AB2N002SigCr             AB2N003SigCr             AB2N004SigCr             AB2N005SigCr             AB2N006SigCr             AB2N007SigCr             AB2N008SigCr             AB2N009SigCr             AB2N010SigCr             AB2N011SigCr             AB2N012SigCr             AB2N013SigCr             AB2N014SigCr             AB2N015SigCr             AB2N016SigCr             AB2N017SigCr             AB2N018SigCr             AB2N019SigCr             AB3N001SigCr             AB3N002SigCr             AB3N003SigCr             AB3N004SigCr             AB3N005SigCr             AB3N006SigCr             AB3N007SigCr             AB3N008SigCr             AB3N009SigCr             AB3N010SigCr             AB3N011SigCr             AB3N012SigCr             AB3N013SigCr             AB3N014SigCr             AB3N015SigCr             AB3N016SigCr             AB3N017SigCr             AB3N018SigCr             AB3N019SigCr              AB1N001Gam               AB1N002Gam               AB1N003Gam               AB1N004Gam               AB1N005Gam               AB1N006Gam               AB1N007Gam               AB1N008Gam               AB1N009Gam               AB1N010Gam               AB1N011Gam               AB1N012Gam               AB1N013Gam               AB1N014Gam               AB1N015Gam               AB1N016Gam               AB1N017Gam               AB1N018Gam               AB1N019Gam               AB2N001Gam               AB2N002Gam               AB2N003Gam               AB2N004Gam               AB2N005Gam               AB2N006Gam               AB2N007Gam               AB2N008Gam               AB2N009Gam               AB2N010Gam               AB2N011Gam               AB2N012Gam               AB2N013Gam               AB2N014Gam               AB2N015Gam               AB2N016Gam               AB2N017Gam               AB2N018Gam               AB2N019Gam               AB3N001Gam               AB3N002Gam               AB3N003Gam               AB3N004Gam               AB3N005Gam               AB3N006Gam               AB3N007Gam               AB3N008Gam               AB3N009Gam               AB3N010Gam               AB3N011Gam               AB3N012Gam               AB3N013Gam               AB3N014Gam               AB3N015Gam               AB3N016Gam               AB3N017Gam               AB3N018Gam               AB3N019Gam            AB1N001Cl_Static         AB1N002Cl_Static         AB1N003Cl_Static         AB1N004Cl_Static         AB1N005Cl_Static         AB1N006Cl_Static         AB1N007Cl_Static         AB1N008Cl_Static         AB1N009Cl_Static         AB1N010Cl_Static         AB1N011Cl_Static         AB1N012Cl_Static         AB1N013Cl_Static         AB1N014Cl_Static         AB1N015Cl_Static         AB1N016Cl_Static         AB1N017Cl_Static         AB1N018Cl_Static         AB1N019Cl_Static         AB2N001Cl_Static         AB2N002Cl_Static         AB2N003Cl_Static         AB2N004Cl_Static         AB2N005Cl_Static         AB2N006Cl_Static         AB2N007Cl_Static         AB2N008Cl_Static         AB2N009Cl_Static         AB2N010Cl_Static         AB2N011Cl_Static         AB2N012Cl_Static         AB2N013Cl_Static         AB2N014Cl_Static         AB2N015Cl_Static         AB2N016Cl_Static         AB2N017Cl_Static         AB2N018Cl_Static         AB2N019Cl_Static         AB3N001Cl_Static         AB3N002Cl_Static         AB3N003Cl_Static         AB3N004Cl_Static         AB3N005Cl_Static         AB3N006Cl_Static         AB3N007Cl_Static         AB3N008Cl_Static         AB3N009Cl_Static         AB3N010Cl_Static         AB3N011Cl_Static         AB3N012Cl_Static         AB3N013Cl_Static         AB3N014Cl_Static         AB3N015Cl_Static         AB3N016Cl_Static         AB3N017Cl_Static         AB3N018Cl_Static         AB3N019Cl_Static         AB1N001Cd_Static         AB1N002Cd_Static         AB1N003Cd_Static         AB1N004Cd_Static         AB1N005Cd_Static         AB1N006Cd_Static         AB1N007Cd_Static         AB1N008Cd_Static         AB1N009Cd_Static         AB1N010Cd_Static         AB1N011Cd_Static         AB1N012Cd_Static         AB1N013Cd_Static         AB1N014Cd_Static         AB1N015Cd_Static         AB1N016Cd_Static         AB1N017Cd_Static         AB1N018Cd_Static         AB1N019Cd_Static         AB2N001Cd_Static         AB2N002Cd_Static         AB2N003Cd_Static         AB2N004Cd_Static         AB2N005Cd_Static         AB2N006Cd_Static         AB2N007Cd_Static         AB2N008Cd_Static         AB2N009Cd_Static         AB2N010Cd_Static         AB2N011Cd_Static         AB2N012Cd_Static         AB2N013Cd_Static         AB2N014Cd_Static         AB2N015Cd_Static         AB2N016Cd_Static         AB2N017Cd_Static         AB2N018Cd_Static         AB2N019Cd_Static         AB3N001Cd_Static         AB3N002Cd_Static         AB3N003Cd_Static         AB3N004Cd_Static         AB3N005Cd_Static         AB3N006Cd_Static         AB3N007Cd_Static         AB3N008Cd_Static         AB3N009Cd_Static         AB3N010Cd_Static         AB3N011Cd_Static         AB3N012Cd_Static         AB3N013Cd_Static         AB3N014Cd_Static         AB3N015Cd_Static         AB3N016Cd_Static         AB3N017Cd_Static         AB3N018Cd_Static         AB3N019Cd_Static         AB1N001Cm_Static         AB1N002Cm_Static         AB1N003Cm_Static         AB1N004Cm_Static         AB1N005Cm_Static         AB1N006Cm_Static         AB1N007Cm_Static         AB1N008Cm_Static         AB1N009Cm_Static         AB1N010Cm_Static         AB1N011Cm_Static         AB1N012Cm_Static         AB1N013Cm_Static         AB1N014Cm_Static         AB1N015Cm_Static         AB1N016Cm_Static         AB1N017Cm_Static         AB1N018Cm_Static         AB1N019Cm_Static         AB2N001Cm_Static         AB2N002Cm_Static         AB2N003Cm_Static         AB2N004Cm_Static         AB2N005Cm_Static         AB2N006Cm_Static         AB2N007Cm_Static         AB2N008Cm_Static         AB2N009Cm_Static         AB2N010Cm_Static         AB2N011Cm_Static         AB2N012Cm_Static         AB2N013Cm_Static         AB2N014Cm_Static         AB2N015Cm_Static         AB2N016Cm_Static         AB2N017Cm_Static         AB2N018Cm_Static         AB2N019Cm_Static         AB3N001Cm_Static         AB3N002Cm_Static         AB3N003Cm_Static         AB3N004Cm_Static         AB3N005Cm_Static         AB3N006Cm_Static         AB3N007Cm_Static         AB3N008Cm_Static         AB3N009Cm_Static         AB3N010Cm_Static         AB3N011Cm_Static         AB3N012Cm_Static         AB3N013Cm_Static         AB3N014Cm_Static         AB3N015Cm_Static         AB3N016Cm_Static         AB3N017Cm_Static         AB3N018Cm_Static         AB3N019Cm_Static            AB1N001Uin               AB1N002Uin               AB1N003Uin               AB1N004Uin               AB1N005Uin               AB1N006Uin               AB1N007Uin               AB1N008Uin               AB1N009Uin               AB1N010Uin               AB1N011Uin               AB1N012Uin               AB1N013Uin               AB1N014Uin               AB1N015Uin               AB1N016Uin               AB1N017Uin               AB1N018Uin               AB1N019Uin               AB2N001Uin               AB2N002Uin               AB2N003Uin               AB2N004Uin               AB2N005Uin               AB2N006Uin               AB2N007Uin               AB2N008Uin               AB2N009Uin               AB2N010Uin               AB2N011Uin               AB2N012Uin               AB2N013Uin               AB2N014Uin               AB2N015Uin               AB2N016Uin               AB2N017Uin               AB2N018Uin               AB2N019Uin               AB3N001Uin               AB3N002Uin               AB3N003Uin               AB3N004Uin               AB3N005Uin               AB3N006Uin               AB3N007Uin               AB3N008Uin               AB3N009Uin               AB3N010Uin               AB3N011Uin               AB3N012Uin               AB3N013Uin               AB3N014Uin               AB3N015Uin               AB3N016Uin               AB3N017Uin               AB3N018Uin               AB3N019Uin               AB1N001Uit               AB1N002Uit               AB1N003Uit               AB1N004Uit               AB1N005Uit               AB1N006Uit               AB1N007Uit               AB1N008Uit               AB1N009Uit               AB1N010Uit               AB1N011Uit               AB1N012Uit               AB1N013Uit               AB1N014Uit               AB1N015Uit               AB1N016Uit               AB1N017Uit               AB1N018Uit               AB1N019Uit               AB2N001Uit               AB2N002Uit               AB2N003Uit               AB2N004Uit               AB2N005Uit               AB2N006Uit               AB2N007Uit               AB2N008Uit               AB2N009Uit               AB2N010Uit               AB2N011Uit               AB2N012Uit               AB2N013Uit               AB2N014Uit               AB2N015Uit               AB2N016Uit               AB2N017Uit               AB2N018Uit               AB2N019Uit               AB3N001Uit               AB3N002Uit               AB3N003Uit               AB3N004Uit               AB3N005Uit               AB3N006Uit               AB3N007Uit               AB3N008Uit               AB3N009Uit               AB3N010Uit               AB3N011Uit               AB3N012Uit               AB3N013Uit               AB3N014Uit               AB3N015Uit               AB3N016Uit               AB3N017Uit               AB3N018Uit               AB3N019Uit               AB1N001Uir               AB1N002Uir               AB1N003Uir               AB1N004Uir               AB1N005Uir               AB1N006Uir               AB1N007Uir               AB1N008Uir               AB1N009Uir               AB1N010Uir               AB1N011Uir               AB1N012Uir               AB1N013Uir               AB1N014Uir               AB1N015Uir               AB1N016Uir               AB1N017Uir               AB1N018Uir               AB1N019Uir               AB2N001Uir               AB2N002Uir               AB2N003Uir               AB2N004Uir               AB2N005Uir               AB2N006Uir               AB2N007Uir               AB2N008Uir               AB2N009Uir               AB2N010Uir               AB2N011Uir               AB2N012Uir               AB2N013Uir               AB2N014Uir               AB2N015Uir               AB2N016Uir               AB2N017Uir               AB2N018Uir               AB2N019Uir               AB3N001Uir               AB3N002Uir               AB3N003Uir               AB3N004Uir               AB3N005Uir               AB3N006Uir               AB3N007Uir               AB3N008Uir               AB3N009Uir               AB3N010Uir               AB3N011Uir               AB3N012Uir               AB3N013Uir               AB3N014Uir               AB3N015Uir               AB3N016Uir               AB3N017Uir               AB3N018Uir               AB3N019Uir               Wind1VelX                Wind1VelY                Wind1VelZ        
[...]
               2.7013848                5.2744622                7.8475604               11.0648270               14.9295435               18.7977524               22.6683331               26.5413818               30.4168186               34.2943954               38.1738052               42.0545349               45.9360466               49.8178482               53.0526199               55.6402359               58.2276993               59.5213585                1.4195609                2.7073002                5.2824845                7.8603048               11.0882149               14.9727802               18.8705063               22.7802601               26.7017860               30.6346645               34.5781860               38.5314560               42.4932480               46.4622879               50.4372482               53.7525368               56.4059677               59.0597534               60.3866005                1.4035213                2.6897669                5.2607207                7.8289285               11.0350733               14.8788052               18.7156963               22.5447845               26.3668880               30.1826191               33.9926834               37.7976761               41.5980606               45.3939896               49.1857910               52.3433037               54.8679123               57.3919792               58.6539116                0.0000000                0.0000000                0.0000000                0.0000000                0.0000000                0.0000000                0.0000000                0.0000000                0.0000000                0.0000000                0.0000000                0.0000000                0.0000000                0.0000000                0.0000000                0.0000000                0.0000000                0.0000000                0.0000000                0.0000000                0.0000000                0.0000000                0.0000000                0.0000000                0.0000000                0.0000000                0.0000000                0.0000000                0.0000000                0.0000000                0.0000000                0.0000000                0.0000000                0.0000000                0.0000000                0.0000000                0.0000000                0.0000000                0.0000000                0.0000000                0.0000000                0.0000000                0.0000000                0.0000000                0.0000000                0.0000000                0.0000000                0.0000000                0.0000000                0.0000000                0.0000000                0.0000000                0.0000000                0.0000000                0.0000000                0.0000000                0.0000000              167.6004639              167.6004639              167.6004639              167.6004639              167.6004639              167.6004639              167.6004639              167.6004639              167.6004639              167.6004639              167.6004639              167.6004639              167.6004639              167.6004639              167.6004639              167.6004639              167.6004639              167.6004639              167.6004639              167.6004639              167.6004639              167.6004639              167.6004639              167.6004639              167.6004639              167.6004639              167.6004639              167.6004639              167.6004639              167.6004639              167.6004639              167.6004639              167.6004639              167.6004639              167.6004639              167.6004639              167.6004639              167.6004639              167.6004639              167.6004639              167.6004639              167.6004639              167.6004639              167.6004639              167.6004639              167.6004639              167.6004639              167.6004639              167.6004639              167.6004639              167.6004639              167.6004639              167.6004639              167.6004639              167.6004639              167.6004639              167.6004639                0.0000000                0.0000000                0.0000000                0.0000000                0.0000000                0.0000000                0.0000000                0.0000000                0.0000000                0.0000000                0.0000000                0.0000000                0.0000000                0.0000000                0.0000000                0.0000000                0.0000000                0.0000000                0.0000000                0.0000000                0.0000000                0.0000000                0.0000000                0.0000000                0.0000000                0.0000000                0.0000000                0.0000000                0.0000000                0.0000000                0.0000000                0.0000000                0.0000000                0.0000000                0.0000000                0.0000000                0.0000000                0.0000000                0.0000000                0.0000000                0.0000000                0.0000000                0.0000000                0.0000000                0.0000000                0.0000000                0.0000000                0.0000000                0.0000000                0.0000000                0.0000000                0.0000000                0.0000000                0.0000000                0.0000000                0.0000000                0.0000000                0.0000000                0.0000000                0.0000000                0.0000000                0.0000000                0.0000000                0.0000000                0.0000000                0.0000000                0.0000000                0.0000000                0.0000000                0.0000000                0.0000000                0.0000000                0.0000000                0.0000000                0.0000000                0.0000000                0.0000000                0.0000000                0.0000000                0.0000000                0.0000000                0.0000000                0.0000000                0.0000000                0.0000000                0.0000000                0.0000000                0.0000000                0.0000000                0.0000000                0.0000000                0.0000000                0.0000000                0.0000000                0.0000000                0.0000000                0.0000000                0.0000000                0.0000000                0.0000000                0.0000000                0.0000000                0.0000000                0.0000000                0.0000000                0.0000000                0.0000000                0.0000000                0.0000000                0.0000000                0.0000000                0.0000000                0.0000000                0.0000000                0.0000000                0.0000000                0.0000000                0.0000000                0.0000000                0.0000000                0.0000000                0.0000000                0.0000000                0.0000000                0.0000000                0.0000000                0.0000000                0.0000000                0.0000000                0.0000000                0.0000000                0.0000000                0.0000000                0.0000000                0.0000000                0.0000000                0.0000000                0.0000000                0.0000000                0.0000000                0.0000000                0.0000000                0.0000000                0.0000000                0.0000000                0.0000000                0.0000000                0.0000000                0.0000000                0.0000000                0.0000000                0.0000000                0.0000000                0.0000000                0.0000000                0.0000000                0.0000000                0.0000000                0.0000000                0.0000000                0.0000000                0.0000000                0.0000000                0.0000000                0.0000000                0.0000000                0.0000000                0.0000000                0.0000000                0.0000000                0.0000000                0.0000000                0.0000000                0.0000000                0.0000000                0.0000000                0.0000000                0.0000000                0.0000000                0.0000000                0.0000000                0.0000000                0.0000000                0.0000000                0.0000000                0.0000000                0.0000000                0.0000000                0.0000000                0.0000000                0.0000000                0.0000000                0.0000000                0.0000000                0.0000000                0.0000000                0.0000000                0.0000000                0.0000000                0.0000000                0.0000000                0.0000000                0.0000000                0.0000000                0.0000000                0.0000000                0.0000000                0.0000000                0.0000000                0.0000000                0.0000000                0.0000000                0.0000000                0.0000000                0.0000000                0.0000000                0.0000000                0.0000000                0.0000000                0.0000000                0.0000000                0.0000000                0.0000000                0.0000000                0.0000000                0.0000000                0.0000000                0.0000000                0.0000000                0.0000000                0.0000000                0.0000000              -11.5543623              -18.2115097              -20.9404049              -40.7753067              -40.0767479              -36.4712601              -25.1453419              -19.7315712               10.1773729               17.2326145               23.6016369               28.4200878               30.6433353               23.3956280               18.1557693                0.0000000                0.0000000                0.0000000                0.0000000              -12.5262003              -18.5122051              -21.2837124              -42.3037338              -41.6542740              -38.7000504              -27.4898548              -21.8696651               10.7517586               17.8747444               24.3551369               29.2664948               31.5323486               24.0804615               18.4203663                0.0000000                0.0000000                0.0000000                0.0000000              -12.4605198              -18.3840294              -21.0805531              -41.5836678              -40.7577667              -37.1847839              -25.7732410              -20.1956329               10.2661018               17.2951660               23.7006454               28.5747242               30.8501186               23.6073208               17.8913841                0.0000000                0.0000000                0.0000000                0.0000000                0.0000000                0.0000000                0.0000000                0.0000000                0.0000000                0.0000000                0.0000000                0.0000000                0.0000000                0.0000000                0.0000000                0.0000000                0.0000000                0.0000000                0.0000000                0.0000000                0.0000000                0.0000000                0.0000000                0.0000000                0.0000000                0.0000000                0.0000000                0.0000000                0.0000000                0.0000000                0.0000000                0.0000000                0.0000000                0.0000000                0.0000000                0.0000000                0.0000000                0.0000000                0.0000000                0.0000000                0.0000000                0.0000000                0.0000000                0.0000000                0.0000000                0.0000000                0.0000000                0.0000000                0.0000000                0.0000000                0.0000000                0.0000000                0.0000000                0.0000000                0.0000000                0.0000000                0.0000000                0.0000000                0.0000000                0.0000000                0.0000000                0.0000000                0.0000000                0.0000000                0.0000000                0.0000000                0.0000000                0.0000000                0.0000000                0.0000000                0.0000000                0.0000000                0.0000000                0.0000000                0.0000000                0.0000000                0.0000000                0.0000000                0.0000000                0.0000000                0.0000000                0.0000000                0.0000000                0.0000000                0.0000000                0.0000000                0.0000000                0.0000000                0.0000000                0.0000000                0.0000000                0.0000000                0.0000000                0.0000000                0.0000000                0.0000000                0.0000000                0.0000000                0.0000000                0.0000000                0.0000000                0.0000000                0.0000000                0.0000000                0.0000000                0.0000000                0.0000000                0.0000000                0.0000000                0.0000000                0.0000000                0.0000000                0.0000000                0.0000000                0.0000000                0.0000000                0.0000000                0.0000000                0.0000000                0.0000000                0.0000000                0.0000000                0.0000000                0.0000000                0.0000000                0.0000000                0.0000000                0.0000000                0.0000000                0.0000000                0.0000000                0.0000000                0.0000000                0.0000000                0.0000000                0.0000000                0.0000000                0.0000000                0.0000000                0.0000000                0.0000000                0.0000000                0.0000000                0.0000000                0.0000000                0.0000000                0.0000000                0.0000000                0.0000000                0.0000000                0.0000000                0.0000000                0.0000000                0.0000000                0.0000000                0.0000000                0.0000000                0.0000000                0.0000000                0.0000000                0.0000000                0.0000000                0.0000000                0.0000000                0.0000000                0.0000000                0.0000000                0.0000000                0.0000000                0.0000000                0.0000000                0.0071650                0.0000000                0.0000000                0.0000000                0.0054299               -0.0182790               -0.0705558               -0.1489904               -0.2566365               -0.3968523               -0.5726282               -0.7864720                1.5595043                1.9987025                2.4930747                2.9335234                3.2991166                3.6672709                2.5658970                0.0127565                0.0000000                0.0000000                0.0000000               -0.0311027               -0.0643766               -0.1242086               -0.2089394               -0.3222197               -0.4681483               -0.6505929               -0.8730567                1.7065272                2.1684656                2.6919713                3.1608603                3.5515864                3.9459083                2.7605288                0.0128970                0.0000000                0.0000000                0.0000000               -0.0304351               -0.0618307               -0.1173588               -0.1941421               -0.2961116               -0.4283726               -0.5967144               -0.8072586                1.5978550                2.0627604                2.6071634                3.1067746                3.5314546                3.9667413                2.7884057               -0.0000000                0.0000000                0.0000000                0.0000000               -0.1012670                0.3822438                0.3308262                0.5582508                0.4280011                0.4185938                0.3786260                0.2998289               -0.1258347               -0.1429706               -0.1520514               -0.1567215               -0.1562261               -0.1286092               -0.0000006                0.0000000                0.0000000                0.0000000                0.0000000                0.4138548                0.3846239                0.3333722                0.5593174                0.4298437                0.4209478                0.3834836                0.3100985               -0.1237835               -0.1419846               -0.1517504               -0.1566998               -0.1559328               -0.1268554                0.0000002                0.0000000                0.0000000                0.0000000                0.0000000                0.4118552                0.3821402                0.3304981                0.5538921                0.4247013                0.4150448                0.3759769                0.2995822               -0.1230502               -0.1397144               -0.1482118               -0.1523019               -0.1508364               -0.1212959                0.0000003                0.0003128                0.0000000                0.0000000                0.0000000                0.0002357               -0.0007913               -0.0030417               -0.0063990               -0.0109814               -0.0169079               -0.0242795               -0.0331807                0.0654709                0.0831453                0.1033482                0.1213914                0.1365200                0.1517936                0.1062980                0.0005569                0.0000000                0.0000000                0.0000000               -0.0013544               -0.0027970               -0.0053655               -0.0089938               -0.0138123               -0.0199765               -0.0276275               -0.0368800                0.0716852                0.0901402                0.1114396                0.1305341                0.1466699                0.1629468                0.1140859                0.0005631                0.0000000                0.0000000                0.0000000               -0.0013262               -0.0026879               -0.0050768               -0.0083737               -0.0127256               -0.0183293               -0.0254022               -0.0341623                0.0671886                0.0855628                0.1074827                0.1275273                0.1449596                0.1625915                0.1143151                0.0000000                0.0000000                0.0000000
