
This summary information was generated by AeroDyn on 24-Apr-2023 at 12:41:56.

======  General Options  ============================================================================
            2  WakeMod        - Type of wake/induction model: Dynamic Blade-Element/Momentum Theory
            1  AFAeroMod      - Type of blade airfoil aerodynamics model: steady
            1  TwrPotent      - Type of tower influence on wind based on potential flow around the tower: baseline potential flow
            0  TwrShadow      - Type of tower influence on wind based on downstream tower shadow: none
            T  TwrAero        - Calculate tower aerodynamic loads? Yes
            T  CavitCheck     - Perform cavitation check? Yes
            T  Buoyancy       - Include buoyancy effects? Yes
======  Blade-Element/Momentum Theory Options  ======================================================
            2  SkewMod        - Type of skewed-wake correction model: Pitt/Peters
            T  TipLoss        - Use the Prandtl tip-loss model? Yes
            T  HubLoss        - Use the Prandtl hub-loss model? Yes
            T  TanInd         - Include tangential induction in BEMT calculations? Yes
            T  AIDrag         - Include the drag term in the axial-induction calculation? Yes
            T  TIDrag         - Include the drag term in the tangential-induction calculation? Yes
   5.0000E-10  IndToler       - Convergence tolerance for BEM induction factors (radians)
            2  DBEMT_Mod      - Type of dynamic BEMT (DBEMT) model: time-dependent tau1
======  Outputs  ====================================================================================
            9  NBlOuts        - Number of blade nodes selected for output
           32  NumBlNds       - Number of blade nodes in the analysis
               Blade nodes selected for output:  Output node  Analysis node
                                                 -----------  -------------
                                                           1              1
                                                           2              5
                                                           3              9
                                                           4             13
                                                           5             17
                                                           6             21
                                                           7             25
                                                           8             27
                                                           9             30
            4  NTwOuts        - Number of tower nodes selected for output
            4  NumTwrNds      - Number of tower nodes in the analysis
               Tower nodes selected for output:  Output node  Analysis node
                                                 -----------  -------------
                                                           1              1
                                                           2              2
                                                           3              3
                                                           4              4

               Requested Output Channels:
                Col   Parameter            Units               
                ---   ---------------      ---------------     
                  0   Time                 (s)                 
                  1   TwN1Fbx              (N/m)               
                  2   TwN3Fby              (N/m)               
                  3   TwN4Fbz              (N/m)               
                  4   TwN1Mbx              (N-m/m)             
                  5   TwN2Mby              (N-m/m)             
                  6   TwN3Mbz              (N-m/m)             
                  7   B2N4Fbn              (N/m)               
                  8   B1N7Fbt              (N/m)               
                  9   B2N8Fbs              (N/m)               
                 10   B1N2Mbn              (N-m/m)             
                 11   B2N3Mbt              (N-m/m)             
                 12   B1N6Mbs              (N-m/m)             
                 13   B1FldFz              (N)                 
                 14   B2FldMx              (N-m)               
                 15   HbFbx                (N)                 
                 16   HbFby                (N)                 
                 17   HbFbz                (N)                 
                 18   HbMbx                (N-m)               
                 19   HbMby                (N-m)               
                 20   HbMbz                (N-m)               
                 21   NcFbx                (N)                 
                 22   NcFby                (N)                 
                 23   NcFbz                (N)                 
                 24   NcMbx                (N-m)               
                 25   NcMby                (N-m)               
                 26   NcMbz                (N-m)               
                 27   RtFldFxh             (N)                 
                 28   RtFldFyh             (N)                 
                 29   RtFldFzg             (N)                 
                 30   RtFldMxh             (N-m)               
                 31   RtFldMyg             (N-m)               
                 32   RtFldMzh             (N-m)               
                 33   B1N3SigCr            (-)                 
                 34   B2N5SigCr            (-)                 
                 35   B1N2SgCav            (-)                 
                 36   B2N6SgCav            (-)                 


               Requested Output Channels at each blade station:
                Col   Parameter            Units               
                ---   ---------------      ---------------     


Buoyancy parameters:

Hub volume (m^3):           7.200
Nacelle volume (m^3):      38.600
Total blade volume (m^3):   5.122
Tower volume (m^3):         1.247
