
This summary file was generated by HydroDyn  on 20-Apr-2023 at 13:19:34.

WAMIT Model - Body    1
------------------
  Displaced volume (m^3)                 :     2.671850E+03
  X-offset of the center of buoyancy (m) :     0.000000E+00
  Y-offset of the center of buoyancy (m) :     0.000000E+00


  Buoyancy loads from members modelled with WAMIT, summed about ( 0.0, 0.0, 0.0 )
                                BuoyFxi               BuoyFyi               BuoyFzi               BuoyMxi               BuoyMyi               BuoyMzi 
                                  (N)                   (N)                   (N)                  (N-m)                 (N-m)                 (N-m)  
  External:                 0.000000E+00          0.000000E+00          2.685695E+07          0.000000E+00         -0.000000E+00          0.000000E+00



Strip-Theory Volume Calculations(m^3)
-------------------------------------
  Structure Volume     :    0.00000E+00
  Submerged Volume     :    0.00000E+00
  Marine Growth Volume :    0.00000E+00
  Ballasted Volume     :    0.00000E+00
              NOTE: Structure, Submerged and Marine Growth volumes are based on members not modelled with WAMIT
                      Ballasted volume is computed from all members which are marked as filled in the HydroDyn input file, regardless of PropPot flag



Total Buoyancy loads summed about ( 0.0, 0.0, 0.0 )
---------------------------------------------------
                                BuoyFxi               BuoyFyi               BuoyFzi               BuoyMxi               BuoyMyi               BuoyMzi 
                                  (N)                   (N)                   (N)                  (N-m)                 (N-m)                 (N-m)  
 External:                  0.000000E+00          0.000000E+00          0.000000E+00          0.000000E+00          0.000000E+00          0.000000E+00
 Internal:                  0.000000E+00          0.000000E+00          0.000000E+00          0.000000E+00          0.000000E+00          0.000000E+00
 Total   :                  0.000000E+00          0.000000E+00          0.000000E+00          0.000000E+00          0.000000E+00          0.000000E+00
              NOTE: External buoyancy is based on members not modelled with WAMIT
                      Internal buoyancy is computed from all members which are marked as filled in the HydroDyn input file, regardless of PropPot flag
                    Total buoyancy does not include WAMIT-modelled buoyancy contribution



Weight loads about ( 0.0, 0.0, 0.0 )
------------------------------------
                                 MGFxi                 MGFyi                 MGFzi                 MGMxi                 MGMyi                 MGMzi  
                                  (N)                   (N)                   (N)                  (N-m)                 (N-m)                 (N-m)  
 Marine Growth:             0.000000E+00          0.000000E+00          0.000000E+00          0.000000E+00          0.000000E+00          0.000000E+00



Nodes (first [  33 ] are joints, remainder are internal nodes)


   i      MbrIndx      Nxi         Nyi         Nzi           R          t          tMG        MGDens     PropPot    FilledFlag  FilledMass      Cd          Ca          Cp         AxCd        AxCa        AxCp        JAxCd       JAxCa       JAxCp  
  (-)       (-)        (m)         (m)         (m)          (m)        (m)         (m)       (kg/m^3)      (-)         (-)        (kg)          (-)         (-)         (-)         (-)         (-)         (-)         (-)         (-)         (-)   
     1      -          28.0000      0.0000    -10.0000      -           -        0.000E+00   0.000E+00      -           -           -           -           -           -           -           -           -        0.000E+00   0.000E+00   0.000E+00
     2      -          28.0000      0.0000      6.0000      -           -        0.000E+00   0.000E+00      -           -           -           -           -           -           -           -           -        0.000E+00   0.000E+00   0.000E+00
     3      -         -28.0000      0.0000    -10.0000      -           -        0.000E+00   0.000E+00      -           -           -           -           -           -           -           -           -        0.000E+00   0.000E+00   0.000E+00
     4      -         -28.0000      0.0000      6.0000      -           -        0.000E+00   0.000E+00      -           -           -           -           -           -           -           -           -        0.000E+00   0.000E+00   0.000E+00
     5      -           0.0000    -12.0000    -10.0000      -           -        0.000E+00   0.000E+00      -           -           -           -           -           -           -           -           -        0.000E+00   0.000E+00   0.000E+00
     6      -           0.0000    -12.0000      6.0000      -           -        0.000E+00   0.000E+00      -           -           -           -           -           -           -           -           -        0.000E+00   0.000E+00   0.000E+00
     7      -           0.0000     12.0000    -10.0000      -           -        0.000E+00   0.000E+00      -           -           -           -           -           -           -           -           -        0.000E+00   0.000E+00   0.000E+00
     8      -           0.0000     12.0000      6.0000      -           -        0.000E+00   0.000E+00      -           -           -           -           -           -           -           -           -        0.000E+00   0.000E+00   0.000E+00
     9      -           3.6766     10.4243      4.5000      -           -        0.000E+00   0.000E+00      -           -           -           -           -           -           -           -           -        0.000E+00   0.000E+00   0.000E+00
    10      -          24.3234      1.5757      4.5000      -           -        0.000E+00   0.000E+00      -           -           -           -           -           -           -           -           -        0.000E+00   0.000E+00   0.000E+00
    11      -           3.6766    -10.4243      4.5000      -           -        0.000E+00   0.000E+00      -           -           -           -           -           -           -           -           -        0.000E+00   0.000E+00   0.000E+00
    12      -          24.3234     -1.5757      4.5000      -           -        0.000E+00   0.000E+00      -           -           -           -           -           -           -           -           -        0.000E+00   0.000E+00   0.000E+00
    13      -          -3.6766     10.4243      4.5000      -           -        0.000E+00   0.000E+00      -           -           -           -           -           -           -           -           -        0.000E+00   0.000E+00   0.000E+00
    14      -         -24.3234      1.5757      4.5000      -           -        0.000E+00   0.000E+00      -           -           -           -           -           -           -           -           -        0.000E+00   0.000E+00   0.000E+00
    15      -          -3.6766    -10.4243      4.5000      -           -        0.000E+00   0.000E+00      -           -           -           -           -           -           -           -           -        0.000E+00   0.000E+00   0.000E+00
    16      -         -24.3234     -1.5757      4.5000      -           -        0.000E+00   0.000E+00      -           -           -           -           -           -           -           -           -        0.000E+00   0.000E+00   0.000E+00
    17      -           3.6766     10.4243     -8.5000      -           -        0.000E+00   0.000E+00      -           -           -           -           -           -           -           -           -        0.000E+00   0.000E+00   0.000E+00
    18      -          24.3234      1.5757     -8.5000      -           -        0.000E+00   0.000E+00      -           -           -           -           -           -           -           -           -        0.000E+00   0.000E+00   0.000E+00
    19      -           3.6766    -10.4243     -8.5000      -           -        0.000E+00   0.000E+00      -           -           -           -           -           -           -           -           -        0.000E+00   0.000E+00   0.000E+00
    20      -          24.3234     -1.5757     -8.5000      -           -        0.000E+00   0.000E+00      -           -           -           -           -           -           -           -           -        0.000E+00   0.000E+00   0.000E+00
    21      -          -3.6766     10.4243     -8.5000      -           -        0.000E+00   0.000E+00      -           -           -           -           -           -           -           -           -        0.000E+00   0.000E+00   0.000E+00
    22      -         -24.3234      1.5757     -8.5000      -           -        0.000E+00   0.000E+00      -           -           -           -           -           -           -           -           -        0.000E+00   0.000E+00   0.000E+00
    23      -          -3.6766    -10.4243     -8.5000      -           -        0.000E+00   0.000E+00      -           -           -           -           -           -           -           -           -        0.000E+00   0.000E+00   0.000E+00
    24      -         -24.3234     -1.5757     -8.5000      -           -        0.000E+00   0.000E+00      -           -           -           -           -           -           -           -           -        0.000E+00   0.000E+00   0.000E+00
    25      -           0.0000     -8.0000      4.5000      -           -        0.000E+00   0.000E+00      -           -           -           -           -           -           -           -           -        0.000E+00   0.000E+00   0.000E+00
    26      -           0.0000      8.0000      4.5000      -           -        0.000E+00   0.000E+00      -           -           -           -           -           -           -           -           -        0.000E+00   0.000E+00   0.000E+00
    27      -           0.0000     -8.0000     -8.5000      -           -        0.000E+00   0.000E+00      -           -           -           -           -           -           -           -           -        0.000E+00   0.000E+00   0.000E+00
    28      -           0.0000      8.0000     -8.5000      -           -        0.000E+00   0.000E+00      -           -           -           -           -           -           -           -           -        0.000E+00   0.000E+00   0.000E+00
    29      -           0.0000      0.0000     -8.5000      -           -        0.000E+00   0.000E+00      -           -           -           -           -           -           -           -           -        0.000E+00   0.000E+00   0.000E+00
    30      -          28.0000      0.0000    -10.5000      -           -        0.000E+00   0.000E+00      -           -           -           -           -           -           -           -           -        1.000E+00   1.000E+00   1.000E+00
    31      -         -28.0000      0.0000    -10.5000      -           -        0.000E+00   0.000E+00      -           -           -           -           -           -           -           -           -        1.000E+00   1.000E+00   1.000E+00
    32      -           0.0000    -12.0000    -10.5000      -           -        0.000E+00   0.000E+00      -           -           -           -           -           -           -           -           -        1.000E+00   1.000E+00   1.000E+00
    33      -           0.0000     12.0000    -10.5000      -           -        0.000E+00   0.000E+00      -           -           -           -           -           -           -           -           -        1.000E+00   1.000E+00   1.000E+00
    34           0     28.0000      0.0000     -9.9000   4.000E+00   2.000E-02   0.000E+00   0.000E+00           T           F   0.000E+00   1.200E+00   1.000E+00   1.000E+00   0.000E+00   0.000E+00   1.000E+00         -           -           -  
    35           0     28.0000      0.0000     -9.8000   4.000E+00   2.000E-02   0.000E+00   0.000E+00           T           F   0.000E+00   1.200E+00   1.000E+00   1.000E+00   0.000E+00   0.000E+00   1.000E+00         -           -           -  
    36           0     28.0000      0.0000     -9.7000   4.000E+00   2.000E-02   0.000E+00   0.000E+00           T           F   0.000E+00   1.200E+00   1.000E+00   1.000E+00   0.000E+00   0.000E+00   1.000E+00         -           -           -  
    37           0     28.0000      0.0000     -9.6000   4.000E+00   2.000E-02   0.000E+00   0.000E+00           T           F   0.000E+00   1.200E+00   1.000E+00   1.000E+00   0.000E+00   0.000E+00   1.000E+00         -           -           -  
    38           0     28.0000      0.0000     -9.5000   4.000E+00   2.000E-02   0.000E+00   0.000E+00           T           F   0.000E+00   1.200E+00   1.000E+00   1.000E+00   0.000E+00   0.000E+00   1.000E+00         -           -           -  
    39           0     28.0000      0.0000     -9.4000   4.000E+00   2.000E-02   0.000E+00   0.000E+00           T           F   0.000E+00   1.200E+00   1.000E+00   1.000E+00   0.000E+00   0.000E+00   1.000E+00         -           -           -  
    40           0     28.0000      0.0000     -9.3000   4.000E+00   2.000E-02   0.000E+00   0.000E+00           T           F   0.000E+00   1.200E+00   1.000E+00   1.000E+00   0.000E+00   0.000E+00   1.000E+00         -           -           -  
    41           0     28.0000      0.0000     -9.2000   4.000E+00   2.000E-02   0.000E+00   0.000E+00           T           F   0.000E+00   1.200E+00   1.000E+00   1.000E+00   0.000E+00   0.000E+00   1.000E+00         -           -           -  
    42           0     28.0000      0.0000     -9.1000   4.000E+00   2.000E-02   0.000E+00   0.000E+00           T           F   0.000E+00   1.200E+00   1.000E+00   1.000E+00   0.000E+00   0.000E+00   1.000E+00         -           -           -  
    43           0     28.0000      0.0000     -9.0000   4.000E+00   2.000E-02   0.000E+00   0.000E+00           T           F   0.000E+00   1.200E+00   1.000E+00   1.000E+00   0.000E+00   0.000E+00   1.000E+00         -           -           -  
    44           0     28.0000      0.0000     -8.9000   4.000E+00   2.000E-02   0.000E+00   0.000E+00           T           F   0.000E+00   1.200E+00   1.000E+00   1.000E+00   0.000E+00   0.000E+00   1.000E+00         -           -           -  
    45           0     28.0000      0.0000     -8.8000   4.000E+00   2.000E-02   0.000E+00   0.000E+00           T           F   0.000E+00   1.200E+00   1.000E+00   1.000E+00   0.000E+00   0.000E+00   1.000E+00         -           -           -  
    46           0     28.0000      0.0000     -8.7000   4.000E+00   2.000E-02   0.000E+00   0.000E+00           T           F   0.000E+00   1.200E+00   1.000E+00   1.000E+00   0.000E+00   0.000E+00   1.000E+00         -           -           -  
    47           0     28.0000      0.0000     -8.6000   4.000E+00   2.000E-02   0.000E+00   0.000E+00           T           F   0.000E+00   1.200E+00   1.000E+00   1.000E+00   0.000E+00   0.000E+00   1.000E+00         -           -           -  
    48           0     28.0000      0.0000     -8.5000   4.000E+00   2.000E-02   0.000E+00   0.000E+00           T           F   0.000E+00   1.200E+00   1.000E+00   1.000E+00   0.000E+00   0.000E+00   1.000E+00         -           -           -  
    49           0     28.0000      0.0000     -8.4000   4.000E+00   2.000E-02   0.000E+00   0.000E+00           T           F   0.000E+00   1.200E+00   1.000E+00   1.000E+00   0.000E+00   0.000E+00   1.000E+00         -           -           -  
    50           0     28.0000      0.0000     -8.3000   4.000E+00   2.000E-02   0.000E+00   0.000E+00           T           F   0.000E+00   1.200E+00   1.000E+00   1.000E+00   0.000E+00   0.000E+00   1.000E+00         -           -           -  
    51           0     28.0000      0.0000     -8.2000   4.000E+00   2.000E-02   0.000E+00   0.000E+00           T           F   0.000E+00   1.200E+00   1.000E+00   1.000E+00   0.000E+00   0.000E+00   1.000E+00         -           -           -  
    52           0     28.0000      0.0000     -8.1000   4.000E+00   2.000E-02   0.000E+00   0.000E+00           T           F   0.000E+00   1.200E+00   1.000E+00   1.000E+00   0.000E+00   0.000E+00   1.000E+00         -           -           -  
    53           0     28.0000      0.0000     -8.0000   4.000E+00   2.000E-02   0.000E+00   0.000E+00           T           F   0.000E+00   1.200E+00   1.000E+00   1.000E+00   0.000E+00   0.000E+00   1.000E+00         -           -           -  
    54           0     28.0000      0.0000     -7.9000   4.000E+00   2.000E-02   0.000E+00   0.000E+00           T           F   0.000E+00   1.200E+00   1.000E+00   1.000E+00   0.000E+00   0.000E+00   1.000E+00         -           -           -  
    55           0     28.0000      0.0000     -7.8000   4.000E+00   2.000E-02   0.000E+00   0.000E+00           T           F   0.000E+00   1.200E+00   1.000E+00   1.000E+00   0.000E+00   0.000E+00   1.000E+00         -           -           -  
    56           0     28.0000      0.0000     -7.7000   4.000E+00   2.000E-02   0.000E+00   0.000E+00           T           F   0.000E+00   1.200E+00   1.000E+00   1.000E+00   0.000E+00   0.000E+00   1.000E+00         -           -           -  
    57           0     28.0000      0.0000     -7.6000   4.000E+00   2.000E-02   0.000E+00   0.000E+00           T           F   0.000E+00   1.200E+00   1.000E+00   1.000E+00   0.000E+00   0.000E+00   1.000E+00         -           -           -  
    58           0     28.0000      0.0000     -7.5000   4.000E+00   2.000E-02   0.000E+00   0.000E+00           T           F   0.000E+00   1.200E+00   1.000E+00   1.000E+00   0.000E+00   0.000E+00   1.000E+00         -           -           -  
    59           0     28.0000      0.0000     -7.4000   4.000E+00   2.000E-02   0.000E+00   0.000E+00           T           F   0.000E+00   1.200E+00   1.000E+00   1.000E+00   0.000E+00   0.000E+00   1.000E+00         -           -           -  
    60           0     28.0000      0.0000     -7.3000   4.000E+00   2.000E-02   0.000E+00   0.000E+00           T           F   0.000E+00   1.200E+00   1.000E+00   1.000E+00   0.000E+00   0.000E+00   1.000E+00         -           -           -  
    61           0     28.0000      0.0000     -7.2000   4.000E+00   2.000E-02   0.000E+00   0.000E+00           T           F   0.000E+00   1.200E+00   1.000E+00   1.000E+00   0.000E+00   0.000E+00   1.000E+00         -           -           -  
    62           0     28.0000      0.0000     -7.1000   4.000E+00   2.000E-02   0.000E+00   0.000E+00           T           F   0.000E+00   1.200E+00   1.000E+00   1.000E+00   0.000E+00   0.000E+00   1.000E+00         -           -           -  
    63           0     28.0000      0.0000     -7.0000   4.000E+00   2.000E-02   0.000E+00   0.000E+00           T           F   0.000E+00   1.200E+00   1.000E+00   1.000E+00   0.000E+00   0.000E+00   1.000E+00         -           -           -  
    64           0     28.0000      0.0000     -6.9000   4.000E+00   2.000E-02   0.000E+00   0.000E+00           T           F   0.000E+00   1.200E+00   1.000E+00   1.000E+00   0.000E+00   0.000E+00   1.000E+00         -           -           -  
    65           0     28.0000      0.0000     -6.8000   4.000E+00   2.000E-02   0.000E+00   0.000E+00           T           F   0.000E+00   1.200E+00   1.000E+00   1.000E+00   0.000E+00   0.000E+00   1.000E+00         -           -           -  
    66           0     28.0000      0.0000     -6.7000   4.000E+00   2.000E-02   0.000E+00   0.000E+00           T           F   0.000E+00   1.200E+00   1.000E+00   1.000E+00   0.000E+00   0.000E+00   1.000E+00         -           -           -  
    67           0     28.0000      0.0000     -6.6000   4.000E+00   2.000E-02   0.000E+00   0.000E+00           T           F   0.000E+00   1.200E+00   1.000E+00   1.000E+00   0.000E+00   0.000E+00   1.000E+00         -           -           -  
    68           0     28.0000      0.0000     -6.5000   4.000E+00   2.000E-02   0.000E+00   0.000E+00           T           F   0.000E+00   1.200E+00   1.000E+00   1.000E+00   0.000E+00   0.000E+00   1.000E+00         -           -           -  
    69           0     28.0000      0.0000     -6.4000   4.000E+00   2.000E-02   0.000E+00   0.000E+00           T           F   0.000E+00   1.200E+00   1.000E+00   1.000E+00   0.000E+00   0.000E+00   1.000E+00         -           -           -  
    70           0     28.0000      0.0000     -6.3000   4.000E+00   2.000E-02   0.000E+00   0.000E+00           T           F   0.000E+00   1.200E+00   1.000E+00   1.000E+00   0.000E+00   0.000E+00   1.000E+00         -           -           -  
    71           0     28.0000      0.0000     -6.2000   4.000E+00   2.000E-02   0.000E+00   0.000E+00           T           F   0.000E+00   1.200E+00   1.000E+00   1.000E+00   0.000E+00   0.000E+00   1.000E+00         -           -           -  
    72           0     28.0000      0.0000     -6.1000   4.000E+00   2.000E-02   0.000E+00   0.000E+00           T           F   0.000E+00   1.200E+00   1.000E+00   1.000E+00   0.000E+00   0.000E+00   1.000E+00         -           -           -  
    73           0     28.0000      0.0000     -6.0000   4.000E+00   2.000E-02   0.000E+00   0.000E+00           T           F   0.000E+00   1.200E+00   1.000E+00   1.000E+00   0.000E+00   0.000E+00   1.000E+00         -           -           -  
    74           0     28.0000      0.0000     -5.9000   4.000E+00   2.000E-02   0.000E+00   0.000E+00           T           F   0.000E+00   1.200E+00   1.000E+00   1.000E+00   0.000E+00   0.000E+00   1.000E+00         -           -           -  
    75           0     28.0000      0.0000     -5.8000   4.000E+00   2.000E-02   0.000E+00   0.000E+00           T           F   0.000E+00   1.200E+00   1.000E+00   1.000E+00   0.000E+00   0.000E+00   1.000E+00         -           -           -  
    76           0     28.0000      0.0000     -5.7000   4.000E+00   2.000E-02   0.000E+00   0.000E+00           T           F   0.000E+00   1.200E+00   1.000E+00   1.000E+00   0.000E+00   0.000E+00   1.000E+00         -           -           -  
    77           0     28.0000      0.0000     -5.6000   4.000E+00   2.000E-02   0.000E+00   0.000E+00           T           F   0.000E+00   1.200E+00   1.000E+00   1.000E+00   0.000E+00   0.000E+00   1.000E+00         -           -           -  
    78           0     28.0000      0.0000     -5.5000   4.000E+00   2.000E-02   0.000E+00   0.000E+00           T           F   0.000E+00   1.200E+00   1.000E+00   1.000E+00   0.000E+00   0.000E+00   1.000E+00         -           -           -  
    79           0     28.0000      0.0000     -5.4000   4.000E+00   2.000E-02   0.000E+00   0.000E+00           T           F   0.000E+00   1.200E+00   1.000E+00   1.000E+00   0.000E+00   0.000E+00   1.000E+00         -           -           -  
    80           0     28.0000      0.0000     -5.3000   4.000E+00   2.000E-02   0.000E+00   0.000E+00           T           F   0.000E+00   1.200E+00   1.000E+00   1.000E+00   0.000E+00   0.000E+00   1.000E+00         -           -           -  
    81           0     28.0000      0.0000     -5.2000   4.000E+00   2.000E-02   0.000E+00   0.000E+00           T           F   0.000E+00   1.200E+00   1.000E+00   1.000E+00   0.000E+00   0.000E+00   1.000E+00         -           -           -  
    82           0     28.0000      0.0000     -5.1000   4.000E+00   2.000E-02   0.000E+00   0.000E+00           T           F   0.000E+00   1.200E+00   1.000E+00   1.000E+00   0.000E+00   0.000E+00   1.000E+00         -           -           -  
    83           0     28.0000      0.0000     -5.0000   4.000E+00   2.000E-02   0.000E+00   0.000E+00           T           F   0.000E+00   1.200E+00   1.000E+00   1.000E+00   0.000E+00   0.000E+00   1.000E+00         -           -           -  
    84           0     28.0000      0.0000     -4.9000   4.000E+00   2.000E-02   0.000E+00   0.000E+00           T           F   0.000E+00   1.200E+00   1.000E+00   1.000E+00   0.000E+00   0.000E+00   1.000E+00         -           -           -  
    85           0     28.0000      0.0000     -4.8000   4.000E+00   2.000E-02   0.000E+00   0.000E+00           T           F   0.000E+00   1.200E+00   1.000E+00   1.000E+00   0.000E+00   0.000E+00   1.000E+00         -           -           -  
    86           0     28.0000      0.0000     -4.7000   4.000E+00   2.000E-02   0.000E+00   0.000E+00           T           F   0.000E+00   1.200E+00   1.000E+00   1.000E+00   0.000E+00   0.000E+00   1.000E+00         -           -           -  
    87           0     28.0000      0.0000     -4.6000   4.000E+00   2.000E-02   0.000E+00   0.000E+00           T           F   0.000E+00   1.200E+00   1.000E+00   1.000E+00   0.000E+00   0.000E+00   1.000E+00         -           -           -  
    88           0     28.0000      0.0000     -4.5000   4.000E+00   2.000E-02   0.000E+00   0.000E+00           T           F   0.000E+00   1.200E+00   1.000E+00   1.000E+00   0.000E+00   0.000E+00   1.000E+00         -           -           -  
    89           0     28.0000      0.0000     -4.4000   4.000E+00   2.000E-02   0.000E+00   0.000E+00           T           F   0.000E+00   1.200E+00   1.000E+00   1.000E+00   0.000E+00   0.000E+00   1.000E+00         -           -           -  
    90           0     28.0000      0.0000     -4.3000   4.000E+00   2.000E-02   0.000E+00   0.000E+00           T           F   0.000E+00   1.200E+00   1.000E+00   1.000E+00   0.000E+00   0.000E+00   1.000E+00         -           -           -  
    91           0     28.0000      0.0000     -4.2000   4.000E+00   2.000E-02   0.000E+00   0.000E+00           T           F   0.000E+00   1.200E+00   1.000E+00   1.000E+00   0.000E+00   0.000E+00   1.000E+00         -           -           -  
    92           0     28.0000      0.0000     -4.1000   4.000E+00   2.000E-02   0.000E+00   0.000E+00           T           F   0.000E+00   1.200E+00   1.000E+00   1.000E+00   0.000E+00   0.000E+00   1.000E+00         -           -           -  
    93           0     28.0000      0.0000     -4.0000   4.000E+00   2.000E-02   0.000E+00   0.000E+00           T           F   0.000E+00   1.200E+00   1.000E+00   1.000E+00   0.000E+00   0.000E+00   1.000E+00         -           -           -  
    94           0     28.0000      0.0000     -3.9000   4.000E+00   2.000E-02   0.000E+00   0.000E+00           T           F   0.000E+00   1.200E+00   1.000E+00   1.000E+00   0.000E+00   0.000E+00   1.000E+00         -           -           -  
    95           0     28.0000      0.0000     -3.8000   4.000E+00   2.000E-02   0.000E+00   0.000E+00           T           F   0.000E+00   1.200E+00   1.000E+00   1.000E+00   0.000E+00   0.000E+00   1.000E+00         -           -           -  
    96           0     28.0000      0.0000     -3.7000   4.000E+00   2.000E-02   0.000E+00   0.000E+00           T           F   0.000E+00   1.200E+00   1.000E+00   1.000E+00   0.000E+00   0.000E+00   1.000E+00         -           -           -  
    97           0     28.0000      0.0000     -3.6000   4.000E+00   2.000E-02   0.000E+00   0.000E+00           T           F   0.000E+00   1.200E+00   1.000E+00   1.000E+00   0.000E+00   0.000E+00   1.000E+00         -           -           -  
    98           0     28.0000      0.0000     -3.5000   4.000E+00   2.000E-02   0.000E+00   0.000E+00           T           F   0.000E+00   1.200E+00   1.000E+00   1.000E+00   0.000E+00   0.000E+00   1.000E+00         -           -           -  
    99           0     28.0000      0.0000     -3.4000   4.000E+00   2.000E-02   0.000E+00   0.000E+00           T           F   0.000E+00   1.200E+00   1.000E+00   1.000E+00   0.000E+00   0.000E+00   1.000E+00         -           -           -  
   100           0     28.0000      0.0000     -3.3000   4.000E+00   2.000E-02   0.000E+00   0.000E+00           T           F   0.000E+00   1.200E+00   1.000E+00   1.000E+00   0.000E+00   0.000E+00   1.000E+00         -           -           -  
   101           0     28.0000      0.0000     -3.2000   4.000E+00   2.000E-02   0.000E+00   0.000E+00           T           F   0.000E+00   1.200E+00   1.000E+00   1.000E+00   0.000E+00   0.000E+00   1.000E+00         -           -           -  
   102           0     28.0000      0.0000     -3.1000   4.000E+00   2.000E-02   0.000E+00   0.000E+00           T           F   0.000E+00   1.200E+00   1.000E+00   1.000E+00   0.000E+00   0.000E+00   1.000E+00         -           -           -  
   103           0     28.0000      0.0000     -3.0000   4.000E+00   2.000E-02   0.000E+00   0.000E+00           T           F   0.000E+00   1.200E+00   1.000E+00   1.000E+00   0.000E+00   0.000E+00   1.000E+00         -           -           -  
   104           0     28.0000      0.0000     -2.9000   4.000E+00   2.000E-02   0.000E+00   0.000E+00           T           F   0.000E+00   1.200E+00   1.000E+00   1.000E+00   0.000E+00   0.000E+00   1.000E+00         -           -           -  
   105           0     28.0000      0.0000     -2.8000   4.000E+00   2.000E-02   0.000E+00   0.000E+00           T           F   0.000E+00   1.200E+00   1.000E+00   1.000E+00   0.000E+00   0.000E+00   1.000E+00         -           -           -  
   106           0     28.0000      0.0000     -2.7000   4.000E+00   2.000E-02   0.000E+00   0.000E+00           T           F   0.000E+00   1.200E+00   1.000E+00   1.000E+00   0.000E+00   0.000E+00   1.000E+00         -           -           -  
   107           0     28.0000      0.0000     -2.6000   4.000E+00   2.000E-02   0.000E+00   0.000E+00           T           F   0.000E+00   1.200E+00   1.000E+00   1.000E+00   0.000E+00   0.000E+00   1.000E+00         -           -           -  
   108           0     28.0000      0.0000     -2.5000   4.000E+00   2.000E-02   0.000E+00   0.000E+00           T           F   0.000E+00   1.200E+00   1.000E+00   1.000E+00   0.000E+00   0.000E+00   1.000E+00         -           -           -  
   109           0     28.0000      0.0000     -2.4000   4.000E+00   2.000E-02   0.000E+00   0.000E+00           T           F   0.000E+00   1.200E+00   1.000E+00   1.000E+00   0.000E+00   0.000E+00   1.000E+00         -           -           -  
   110           0     28.0000      0.0000     -2.3000   4.000E+00   2.000E-02   0.000E+00   0.000E+00           T           F   0.000E+00   1.200E+00   1.000E+00   1.000E+00   0.000E+00   0.000E+00   1.000E+00         -           -           -  
   111           0     28.0000      0.0000     -2.2000   4.000E+00   2.000E-02   0.000E+00   0.000E+00           T           F   0.000E+00   1.200E+00   1.000E+00   1.000E+00   0.000E+00   0.000E+00   1.000E+00         -           -           -  
   112           0     28.0000      0.0000     -2.1000   4.000E+00   2.000E-02   0.000E+00   0.000E+00           T           F   0.000E+00   1.200E+00   1.000E+00   1.000E+00   0.000E+00   0.000E+00   1.000E+00         -           -           -  
   113           0     28.0000      0.0000     -2.0000   4.000E+00   2.000E-02   0.000E+00   0.000E+00           T           F   0.000E+00   1.200E+00   1.000E+00   1.000E+00   0.000E+00   0.000E+00   1.000E+00         -           -           -  
   114           0     28.0000      0.0000     -1.9000   4.000E+00   2.000E-02   0.000E+00   0.000E+00           T           F   0.000E+00   1.200E+00   1.000E+00   1.000E+00   0.000E+00   0.000E+00   1.000E+00         -           -           -  
   115           0     28.0000      0.0000     -1.8000   4.000E+00   2.000E-02   0.000E+00   0.000E+00           T           F   0.000E+00   1.200E+00   1.000E+00   1.000E+00   0.000E+00   0.000E+00   1.000E+00         -           -           -  
   116           0     28.0000      0.0000     -1.7000   4.000E+00   2.000E-02   0.000E+00   0.000E+00           T           F   0.000E+00   1.200E+00   1.000E+00   1.000E+00   0.000E+00   0.000E+00   1.000E+00         -           -           -  
   117           0     28.0000      0.0000     -1.6000   4.000E+00   2.000E-02   0.000E+00   0.000E+00           T           F   0.000E+00   1.200E+00   1.000E+00   1.000E+00   0.000E+00   0.000E+00   1.000E+00         -           -           -  
   118           0     28.0000      0.0000     -1.5000   4.000E+00   2.000E-02   0.000E+00   0.000E+00           T           F   0.000E+00   1.200E+00   1.000E+00   1.000E+00   0.000E+00   0.000E+00   1.000E+00         -           -           -  
   119           0     28.0000      0.0000     -1.4000   4.000E+00   2.000E-02   0.000E+00   0.000E+00           T           F   0.000E+00   1.200E+00   1.000E+00   1.000E+00   0.000E+00   0.000E+00   1.000E+00         -           -           -  
   120           0     28.0000      0.0000     -1.3000   4.000E+00   2.000E-02   0.000E+00   0.000E+00           T           F   0.000E+00   1.200E+00   1.000E+00   1.000E+00   0.000E+00   0.000E+00   1.000E+00         -           -           -  
   121           0     28.0000      0.0000     -1.2000   4.000E+00   2.000E-02   0.000E+00   0.000E+00           T           F   0.000E+00   1.200E+00   1.000E+00   1.000E+00   0.000E+00   0.000E+00   1.000E+00         -           -           -  
   122           0     28.0000      0.0000     -1.1000   4.000E+00   2.000E-02   0.000E+00   0.000E+00           T           F   0.000E+00   1.200E+00   1.000E+00   1.000E+00   0.000E+00   0.000E+00   1.000E+00         -           -           -  
   123           0     28.0000      0.0000     -1.0000   4.000E+00   2.000E-02   0.000E+00   0.000E+00           T           F   0.000E+00   1.200E+00   1.000E+00   1.000E+00   0.000E+00   0.000E+00   1.000E+00         -           -           -  
   124           0     28.0000      0.0000     -0.9000   4.000E+00   2.000E-02   0.000E+00   0.000E+00           T           F   0.000E+00   1.200E+00   1.000E+00   1.000E+00   0.000E+00   0.000E+00   1.000E+00         -           -           -  
   125           0     28.0000      0.0000     -0.8000   4.000E+00   2.000E-02   0.000E+00   0.000E+00           T           F   0.000E+00   1.200E+00   1.000E+00   1.000E+00   0.000E+00   0.000E+00   1.000E+00         -           -           -  
   126           0     28.0000      0.0000     -0.7000   4.000E+00   2.000E-02   0.000E+00   0.000E+00           T           F   0.000E+00   1.200E+00   1.000E+00   1.000E+00   0.000E+00   0.000E+00   1.000E+00         -           -           -  
   127           0     28.0000      0.0000     -0.6000   4.000E+00   2.000E-02   0.000E+00   0.000E+00           T           F   0.000E+00   1.200E+00   1.000E+00   1.000E+00   0.000E+00   0.000E+00   1.000E+00         -           -           -  
   128           0     28.0000      0.0000     -0.5000   4.000E+00   2.000E-02   0.000E+00   0.000E+00           T           F   0.000E+00   1.200E+00   1.000E+00   1.000E+00   0.000E+00   0.000E+00   1.000E+00         -           -           -  
   129           0     28.0000      0.0000     -0.4000   4.000E+00   2.000E-02   0.000E+00   0.000E+00           T           F   0.000E+00   1.200E+00   1.000E+00   1.000E+00   0.000E+00   0.000E+00   1.000E+00         -           -           -  
   130           0     28.0000      0.0000     -0.3000   4.000E+00   2.000E-02   0.000E+00   0.000E+00           T           F   0.000E+00   1.200E+00   1.000E+00   1.000E+00   0.000E+00   0.000E+00   1.000E+00         -           -           -  
   131           0     28.0000      0.0000     -0.2000   4.000E+00   2.000E-02   0.000E+00   0.000E+00           T           F   0.000E+00   1.200E+00   1.000E+00   1.000E+00   0.000E+00   0.000E+00   1.000E+00         -           -           -  
   132           0     28.0000      0.0000     -0.1000   4.000E+00   2.000E-02   0.000E+00   0.000E+00           T           F   0.000E+00   1.200E+00   1.000E+00   1.000E+00   0.000E+00   0.000E+00   1.000E+00         -           -           -  
   133           0     28.0000      0.0000      0.0000   4.000E+00   2.000E-02   0.000E+00   0.000E+00           T           F   0.000E+00   1.200E+00   1.000E+00   1.000E+00   0.000E+00   0.000E+00   1.000E+00         -           -           -  
   134           0     28.0000      0.0000      0.1000   4.000E+00   2.000E-02   0.000E+00   0.000E+00           T           F   0.000E+00   1.200E+00   1.000E+00   1.000E+00   0.000E+00   0.000E+00   1.000E+00         -           -           -  
   135           0     28.0000      0.0000      0.2000   4.000E+00   2.000E-02   0.000E+00   0.000E+00           T           F   0.000E+00   1.200E+00   1.000E+00   1.000E+00   0.000E+00   0.000E+00   1.000E+00         -           -           -  
   136           0     28.0000      0.0000      0.3000   4.000E+00   2.000E-02   0.000E+00   0.000E+00           T           F   0.000E+00   1.200E+00   1.000E+00   1.000E+00   0.000E+00   0.000E+00   1.000E+00         -           -           -  
   137           0     28.0000      0.0000      0.4000   4.000E+00   2.000E-02   0.000E+00   0.000E+00           T           F   0.000E+00   1.200E+00   1.000E+00   1.000E+00   0.000E+00   0.000E+00   1.000E+00         -           -           -  
   138           0     28.0000      0.0000      0.5000   4.000E+00   2.000E-02   0.000E+00   0.000E+00           T           F   0.000E+00   1.200E+00   1.000E+00   1.000E+00   0.000E+00   0.000E+00   1.000E+00         -           -           -  
   139           0     28.0000      0.0000      0.6000   4.000E+00   2.000E-02   0.000E+00   0.000E+00           T           F   0.000E+00   1.200E+00   1.000E+00   1.000E+00   0.000E+00   0.000E+00   1.000E+00         -           -           -  
   140           0     28.0000      0.0000      0.7000   4.000E+00   2.000E-02   0.000E+00   0.000E+00           T           F   0.000E+00   1.200E+00   1.000E+00   1.000E+00   0.000E+00   0.000E+00   1.000E+00         -           -           -  
   141           0     28.0000      0.0000      0.8000   4.000E+00   2.000E-02   0.000E+00   0.000E+00           T           F   0.000E+00   1.200E+00   1.000E+00   1.000E+00   0.000E+00   0.000E+00   1.000E+00         -           -           -  
   142           0     28.0000      0.0000      0.9000   4.000E+00   2.000E-02   0.000E+00   0.000E+00           T           F   0.000E+00   1.200E+00   1.000E+00   1.000E+00   0.000E+00   0.000E+00   1.000E+00         -           -           -  
   143           0     28.0000      0.0000      1.0000   4.000E+00   2.000E-02   0.000E+00   0.000E+00           T           F   0.000E+00   1.200E+00   1.000E+00   1.000E+00   0.000E+00   0.000E+00   1.000E+00         -           -           -  
   144           0     28.0000      0.0000      1.1000   4.000E+00   2.000E-02   0.000E+00   0.000E+00           T           F   0.000E+00   1.200E+00   1.000E+00   1.000E+00   0.000E+00   0.000E+00   1.000E+00         -           -           -  
   145           0     28.0000      0.0000      1.2000   4.000E+00   2.000E-02   0.000E+00   0.000E+00           T           F   0.000E+00   1.200E+00   1.000E+00   1.000E+00   0.000E+00   0.000E+00   1.000E+00         -           -           -  
   146           0     28.0000      0.0000      1.3000   4.000E+00   2.000E-02   0.000E+00   0.000E+00           T           F   0.000E+00   1.200E+00   1.000E+00   1.000E+00   0.000E+00   0.000E+00   1.000E+00         -           -           -  
   147           0     28.0000      0.0000      1.4000   4.000E+00   2.000E-02   0.000E+00   0.000E+00           T           F   0.000E+00   1.200E+00   1.000E+00   1.000E+00   0.000E+00   0.000E+00   1.000E+00         -           -           -  
   148           0     28.0000      0.0000      1.5000   4.000E+00   2.000E-02   0.000E+00   0.000E+00           T           F   0.000E+00   1.200E+00   1.000E+00   1.000E+00   0.000E+00   0.000E+00   1.000E+00         -           -           -  
   149           0     28.0000      0.0000      1.6000   4.000E+00   2.000E-02   0.000E+00   0.000E+00           T           F   0.000E+00   1.200E+00   1.000E+00   1.000E+00   0.000E+00   0.000E+00   1.000E+00         -           -           -  
   150           0     28.0000      0.0000      1.7000   4.000E+00   2.000E-02   0.000E+00   0.000E+00           T           F   0.000E+00   1.200E+00   1.000E+00   1.000E+00   0.000E+00   0.000E+00   1.000E+00         -           -           -  
   151           0     28.0000      0.0000      1.8000   4.000E+00   2.000E-02   0.000E+00   0.000E+00           T           F   0.000E+00   1.200E+00   1.000E+00   1.000E+00   0.000E+00   0.000E+00   1.000E+00         -           -           -  
   152           0     28.0000      0.0000      1.9000   4.000E+00   2.000E-02   0.000E+00   0.000E+00           T           F   0.000E+00   1.200E+00   1.000E+00   1.000E+00   0.000E+00   0.000E+00   1.000E+00         -           -           -  
   153           0     28.0000      0.0000      2.0000   4.000E+00   2.000E-02   0.000E+00   0.000E+00           T           F   0.000E+00   1.200E+00   1.000E+00   1.000E+00   0.000E+00   0.000E+00   1.000E+00         -           -           -  
   154           0     28.0000      0.0000      2.1000   4.000E+00   2.000E-02   0.000E+00   0.000E+00           T           F   0.000E+00   1.200E+00   1.000E+00   1.000E+00   0.000E+00   0.000E+00   1.000E+00         -           -           -  
   155           0     28.0000      0.0000      2.2000   4.000E+00   2.000E-02   0.000E+00   0.000E+00           T           F   0.000E+00   1.200E+00   1.000E+00   1.000E+00   0.000E+00   0.000E+00   1.000E+00         -           -           -  
   156           0     28.0000      0.0000      2.3000   4.000E+00   2.000E-02   0.000E+00   0.000E+00           T           F   0.000E+00   1.200E+00   1.000E+00   1.000E+00   0.000E+00   0.000E+00   1.000E+00         -           -           -  
   157           0     28.0000      0.0000      2.4000   4.000E+00   2.000E-02   0.000E+00   0.000E+00           T           F   0.000E+00   1.200E+00   1.000E+00   1.000E+00   0.000E+00   0.000E+00   1.000E+00         -           -           -  
   158           0     28.0000      0.0000      2.5000   4.000E+00   2.000E-02   0.000E+00   0.000E+00           T           F   0.000E+00   1.200E+00   1.000E+00   1.000E+00   0.000E+00   0.000E+00   1.000E+00         -           -           -  
   159           0     28.0000      0.0000      2.6000   4.000E+00   2.000E-02   0.000E+00   0.000E+00           T           F   0.000E+00   1.200E+00   1.000E+00   1.000E+00   0.000E+00   0.000E+00   1.000E+00         -           -           -  
   160           0     28.0000      0.0000      2.7000   4.000E+00   2.000E-02   0.000E+00   0.000E+00           T           F   0.000E+00   1.200E+00   1.000E+00   1.000E+00   0.000E+00   0.000E+00   1.000E+00         -           -           -  
   161           0     28.0000      0.0000      2.8000   4.000E+00   2.000E-02   0.000E+00   0.000E+00           T           F   0.000E+00   1.200E+00   1.000E+00   1.000E+00   0.000E+00   0.000E+00   1.000E+00         -           -           -  
   162           0     28.0000      0.0000      2.9000   4.000E+00   2.000E-02   0.000E+00   0.000E+00           T           F   0.000E+00   1.200E+00   1.000E+00   1.000E+00   0.000E+00   0.000E+00   1.000E+00         -           -           -  
   163           0     28.0000      0.0000      3.0000   4.000E+00   2.000E-02   0.000E+00   0.000E+00           T           F   0.000E+00   1.200E+00   1.000E+00   1.000E+00   0.000E+00   0.000E+00   1.000E+00         -           -           -  
   164           0     28.0000      0.0000      3.1000   4.000E+00   2.000E-02   0.000E+00   0.000E+00           T           F   0.000E+00   1.200E+00   1.000E+00   1.000E+00   0.000E+00   0.000E+00   1.000E+00         -           -           -  
   165           0     28.0000      0.0000      3.2000   4.000E+00   2.000E-02   0.000E+00   0.000E+00           T           F   0.000E+00   1.200E+00   1.000E+00   1.000E+00   0.000E+00   0.000E+00   1.000E+00         -           -           -  
   166           0     28.0000      0.0000      3.3000   4.000E+00   2.000E-02   0.000E+00   0.000E+00           T           F   0.000E+00   1.200E+00   1.000E+00   1.000E+00   0.000E+00   0.000E+00   1.000E+00         -           -           -  
   167           0     28.0000      0.0000      3.4000   4.000E+00   2.000E-02   0.000E+00   0.000E+00           T           F   0.000E+00   1.200E+00   1.000E+00   1.000E+00   0.000E+00   0.000E+00   1.000E+00         -           -           -  
   168           0     28.0000      0.0000      3.5000   4.000E+00   2.000E-02   0.000E+00   0.000E+00           T           F   0.000E+00   1.200E+00   1.000E+00   1.000E+00   0.000E+00   0.000E+00   1.000E+00         -           -           -  
   169           0     28.0000      0.0000      3.6000   4.000E+00   2.000E-02   0.000E+00   0.000E+00           T           F   0.000E+00   1.200E+00   1.000E+00   1.000E+00   0.000E+00   0.000E+00   1.000E+00         -           -           -  
   170           0     28.0000      0.0000      3.7000   4.000E+00   2.000E-02   0.000E+00   0.000E+00           T           F   0.000E+00   1.200E+00   1.000E+00   1.000E+00   0.000E+00   0.000E+00   1.000E+00         -           -           -  
   171           0     28.0000      0.0000      3.8000   4.000E+00   2.000E-02   0.000E+00   0.000E+00           T           F   0.000E+00   1.200E+00   1.000E+00   1.000E+00   0.000E+00   0.000E+00   1.000E+00         -           -           -  
   172           0     28.0000      0.0000      3.9000   4.000E+00   2.000E-02   0.000E+00   0.000E+00           T           F   0.000E+00   1.200E+00   1.000E+00   1.000E+00   0.000E+00   0.000E+00   1.000E+00         -           -           -  
   173           0     28.0000      0.0000      4.0000   4.000E+00   2.000E-02   0.000E+00   0.000E+00           T           F   0.000E+00   1.200E+00   1.000E+00   1.000E+00   0.000E+00   0.000E+00   1.000E+00         -           -           -  
   174           0     28.0000      0.0000      4.1000   4.000E+00   2.000E-02   0.000E+00   0.000E+00           T           F   0.000E+00   1.200E+00   1.000E+00   1.000E+00   0.000E+00   0.000E+00   1.000E+00         -           -           -  
   175           0     28.0000      0.0000      4.2000   4.000E+00   2.000E-02   0.000E+00   0.000E+00           T           F   0.000E+00   1.200E+00   1.000E+00   1.000E+00   0.000E+00   0.000E+00   1.000E+00         -           -           -  
   176           0     28.0000      0.0000      4.3000   4.000E+00   2.000E-02   0.000E+00   0.000E+00           T           F   0.000E+00   1.200E+00   1.000E+00   1.000E+00   0.000E+00   0.000E+00   1.000E+00         -           -           -  
   177           0     28.0000      0.0000      4.4000   4.000E+00   2.000E-02   0.000E+00   0.000E+00           T           F   0.000E+00   1.200E+00   1.000E+00   1.000E+00   0.000E+00   0.000E+00   1.000E+00         -           -           -  
   178           0     28.0000      0.0000      4.5000   4.000E+00   2.000E-02   0.000E+00   0.000E+00           T           F   0.000E+00   1.200E+00   1.000E+00   1.000E+00   0.000E+00   0.000E+00   1.000E+00         -           -           -  
   179           0     28.0000      0.0000      4.6000   4.000E+00   2.000E-02   0.000E+00   0.000E+00           T           F   0.000E+00   1.200E+00   1.000E+00   1.000E+00   0.000E+00   0.000E+00   1.000E+00         -           -           -  
   180           0     28.0000      0.0000      4.7000   4.000E+00   2.000E-02   0.000E+00   0.000E+00           T           F   0.000E+00   1.200E+00   1.000E+00   1.000E+00   0.000E+00   0.000E+00   1.000E+00         -           -           -  
   181           0     28.0000      0.0000      4.8000   4.000E+00   2.000E-02   0.000E+00   0.000E+00           T           F   0.000E+00   1.200E+00   1.000E+00   1.000E+00   0.000E+00   0.000E+00   1.000E+00         -           -           -  
   182           0     28.0000      0.0000      4.9000   4.000E+00   2.000E-02   0.000E+00   0.000E+00           T           F   0.000E+00   1.200E+00   1.000E+00   1.000E+00   0.000E+00   0.000E+00   1.000E+00         -           -           -  
   183           0     28.0000      0.0000      5.0000   4.000E+00   2.000E-02   0.000E+00   0.000E+00           T           F   0.000E+00   1.200E+00   1.000E+00   1.000E+00   0.000E+00   0.000E+00   1.000E+00         -           -           -  
   184           0     28.0000      0.0000      5.1000   4.000E+00   2.000E-02   0.000E+00   0.000E+00           T           F   0.000E+00   1.200E+00   1.000E+00   1.000E+00   0.000E+00   0.000E+00   1.000E+00         -           -           -  
   185           0     28.0000      0.0000      5.2000   4.000E+00   2.000E-02   0.000E+00   0.000E+00           T           F   0.000E+00   1.200E+00   1.000E+00   1.000E+00   0.000E+00   0.000E+00   1.000E+00         -           -           -  
   186           0     28.0000      0.0000      5.3000   4.000E+00   2.000E-02   0.000E+00   0.000E+00           T           F   0.000E+00   1.200E+00   1.000E+00   1.000E+00   0.000E+00   0.000E+00   1.000E+00         -           -           -  
   187           0     28.0000      0.0000      5.4000   4.000E+00   2.000E-02   0.000E+00   0.000E+00           T           F   0.000E+00   1.200E+00   1.000E+00   1.000E+00   0.000E+00   0.000E+00   1.000E+00         -           -           -  
   188           0     28.0000      0.0000      5.5000   4.000E+00   2.000E-02   0.000E+00   0.000E+00           T           F   0.000E+00   1.200E+00   1.000E+00   1.000E+00   0.000E+00   0.000E+00   1.000E+00         -           -           -  
   189           0     28.0000      0.0000      5.6000   4.000E+00   2.000E-02   0.000E+00   0.000E+00           T           F   0.000E+00   1.200E+00   1.000E+00   1.000E+00   0.000E+00   0.000E+00   1.000E+00         -           -           -  
   190           0     28.0000      0.0000      5.7000   4.000E+00   2.000E-02   0.000E+00   0.000E+00           T           F   0.000E+00   1.200E+00   1.000E+00   1.000E+00   0.000E+00   0.000E+00   1.000E+00         -           -           -  
   191           0     28.0000      0.0000      5.8000   4.000E+00   2.000E-02   0.000E+00   0.000E+00           T           F   0.000E+00   1.200E+00   1.000E+00   1.000E+00   0.000E+00   0.000E+00   1.000E+00         -           -           -  
   192           0     28.0000      0.0000      5.9000   4.000E+00   2.000E-02   0.000E+00   0.000E+00           T           F   0.000E+00   1.200E+00   1.000E+00   1.000E+00   0.000E+00   0.000E+00   1.000E+00         -           -           -  
   193           1    -28.0000      0.0000     -9.9000   4.000E+00   2.000E-02   0.000E+00   0.000E+00           T           F   0.000E+00   1.200E+00   1.000E+00   1.000E+00   0.000E+00   0.000E+00   1.000E+00         -           -           -  
   194           1    -28.0000      0.0000     -9.8000   4.000E+00   2.000E-02   0.000E+00   0.000E+00           T           F   0.000E+00   1.200E+00   1.000E+00   1.000E+00   0.000E+00   0.000E+00   1.000E+00         -           -           -  
   195           1    -28.0000      0.0000     -9.7000   4.000E+00   2.000E-02   0.000E+00   0.000E+00           T           F   0.000E+00   1.200E+00   1.000E+00   1.000E+00   0.000E+00   0.000E+00   1.000E+00         -           -           -  
   196           1    -28.0000      0.0000     -9.6000   4.000E+00   2.000E-02   0.000E+00   0.000E+00           T           F   0.000E+00   1.200E+00   1.000E+00   1.000E+00   0.000E+00   0.000E+00   1.000E+00         -           -           -  
   197           1    -28.0000      0.0000     -9.5000   4.000E+00   2.000E-02   0.000E+00   0.000E+00           T           F   0.000E+00   1.200E+00   1.000E+00   1.000E+00   0.000E+00   0.000E+00   1.000E+00         -           -           -  
   198           1    -28.0000      0.0000     -9.4000   4.000E+00   2.000E-02   0.000E+00   0.000E+00           T           F   0.000E+00   1.200E+00   1.000E+00   1.000E+00   0.000E+00   0.000E+00   1.000E+00         -           -           -  
   199           1    -28.0000      0.0000     -9.3000   4.000E+00   2.000E-02   0.000E+00   0.000E+00           T           F   0.000E+00   1.200E+00   1.000E+00   1.000E+00   0.000E+00   0.000E+00   1.000E+00         -           -           -  
   200           1    -28.0000      0.0000     -9.2000   4.000E+00   2.000E-02   0.000E+00   0.000E+00           T           F   0.000E+00   1.200E+00   1.000E+00   1.000E+00   0.000E+00   0.000E+00   1.000E+00         -           -           -  
   201           1    -28.0000      0.0000     -9.1000   4.000E+00   2.000E-02   0.000E+00   0.000E+00           T           F   0.000E+00   1.200E+00   1.000E+00   1.000E+00   0.000E+00   0.000E+00   1.000E+00         -           -           -  
   202           1    -28.0000      0.0000     -9.0000   4.000E+00   2.000E-02   0.000E+00   0.000E+00           T           F   0.000E+00   1.200E+00   1.000E+00   1.000E+00   0.000E+00   0.000E+00   1.000E+00         -           -           -  
   203           1    -28.0000      0.0000     -8.9000   4.000E+00   2.000E-02   0.000E+00   0.000E+00           T           F   0.000E+00   1.200E+00   1.000E+00   1.000E+00   0.000E+00   0.000E+00   1.000E+00         -           -           -  
   204           1    -28.0000      0.0000     -8.8000   4.000E+00   2.000E-02   0.000E+00   0.000E+00           T           F   0.000E+00   1.200E+00   1.000E+00   1.000E+00   0.000E+00   0.000E+00   1.000E+00         -           -           -  
   205           1    -28.0000      0.0000     -8.7000   4.000E+00   2.000E-02   0.000E+00   0.000E+00           T           F   0.000E+00   1.200E+00   1.000E+00   1.000E+00   0.000E+00   0.000E+00   1.000E+00         -           -           -  
   206           1    -28.0000      0.0000     -8.6000   4.000E+00   2.000E-02   0.000E+00   0.000E+00           T           F   0.000E+00   1.200E+00   1.000E+00   1.000E+00   0.000E+00   0.000E+00   1.000E+00         -           -           -  
   207           1    -28.0000      0.0000     -8.5000   4.000E+00   2.000E-02   0.000E+00   0.000E+00           T           F   0.000E+00   1.200E+00   1.000E+00   1.000E+00   0.000E+00   0.000E+00   1.000E+00         -           -           -  
   208           1    -28.0000      0.0000     -8.4000   4.000E+00   2.000E-02   0.000E+00   0.000E+00           T           F   0.000E+00   1.200E+00   1.000E+00   1.000E+00   0.000E+00   0.000E+00   1.000E+00         -           -           -  
   209           1    -28.0000      0.0000     -8.3000   4.000E+00   2.000E-02   0.000E+00   0.000E+00           T           F   0.000E+00   1.200E+00   1.000E+00   1.000E+00   0.000E+00   0.000E+00   1.000E+00         -           -           -  
   210           1    -28.0000      0.0000     -8.2000   4.000E+00   2.000E-02   0.000E+00   0.000E+00           T           F   0.000E+00   1.200E+00   1.000E+00   1.000E+00   0.000E+00   0.000E+00   1.000E+00         -           -           -  
   211           1    -28.0000      0.0000     -8.1000   4.000E+00   2.000E-02   0.000E+00   0.000E+00           T           F   0.000E+00   1.200E+00   1.000E+00   1.000E+00   0.000E+00   0.000E+00   1.000E+00         -           -           -  
   212           1    -28.0000      0.0000     -8.0000   4.000E+00   2.000E-02   0.000E+00   0.000E+00           T           F   0.000E+00   1.200E+00   1.000E+00   1.000E+00   0.000E+00   0.000E+00   1.000E+00         -           -           -  
   213           1    -28.0000      0.0000     -7.9000   4.000E+00   2.000E-02   0.000E+00   0.000E+00           T           F   0.000E+00   1.200E+00   1.000E+00   1.000E+00   0.000E+00   0.000E+00   1.000E+00         -           -           -  
   214           1    -28.0000      0.0000     -7.8000   4.000E+00   2.000E-02   0.000E+00   0.000E+00           T           F   0.000E+00   1.200E+00   1.000E+00   1.000E+00   0.000E+00   0.000E+00   1.000E+00         -           -           -  
   215           1    -28.0000      0.0000     -7.7000   4.000E+00   2.000E-02   0.000E+00   0.000E+00           T           F   0.000E+00   1.200E+00   1.000E+00   1.000E+00   0.000E+00   0.000E+00   1.000E+00         -           -           -  
   216           1    -28.0000      0.0000     -7.6000   4.000E+00   2.000E-02   0.000E+00   0.000E+00           T           F   0.000E+00   1.200E+00   1.000E+00   1.000E+00   0.000E+00   0.000E+00   1.000E+00         -           -           -  
   217           1    -28.0000      0.0000     -7.5000   4.000E+00   2.000E-02   0.000E+00   0.000E+00           T           F   0.000E+00   1.200E+00   1.000E+00   1.000E+00   0.000E+00   0.000E+00   1.000E+00         -           -           -  
   218           1    -28.0000      0.0000     -7.4000   4.000E+00   2.000E-02   0.000E+00   0.000E+00           T           F   0.000E+00   1.200E+00   1.000E+00   1.000E+00   0.000E+00   0.000E+00   1.000E+00         -           -           -  
   219           1    -28.0000      0.0000     -7.3000   4.000E+00   2.000E-02   0.000E+00   0.000E+00           T           F   0.000E+00   1.200E+00   1.000E+00   1.000E+00   0.000E+00   0.000E+00   1.000E+00         -           -           -  
   220           1    -28.0000      0.0000     -7.2000   4.000E+00   2.000E-02   0.000E+00   0.000E+00           T           F   0.000E+00   1.200E+00   1.000E+00   1.000E+00   0.000E+00   0.000E+00   1.000E+00         -           -           -  
   221           1    -28.0000      0.0000     -7.1000   4.000E+00   2.000E-02   0.000E+00   0.000E+00           T           F   0.000E+00   1.200E+00   1.000E+00   1.000E+00   0.000E+00   0.000E+00   1.000E+00         -           -           -  
   222           1    -28.0000      0.0000     -7.0000   4.000E+00   2.000E-02   0.000E+00   0.000E+00           T           F   0.000E+00   1.200E+00   1.000E+00   1.000E+00   0.000E+00   0.000E+00   1.000E+00         -           -           -  
   223           1    -28.0000      0.0000     -6.9000   4.000E+00   2.000E-02   0.000E+00   0.000E+00           T           F   0.000E+00   1.200E+00   1.000E+00   1.000E+00   0.000E+00   0.000E+00   1.000E+00         -           -           -  
   224           1    -28.0000      0.0000     -6.8000   4.000E+00   2.000E-02   0.000E+00   0.000E+00           T           F   0.000E+00   1.200E+00   1.000E+00   1.000E+00   0.000E+00   0.000E+00   1.000E+00         -           -           -  
   225           1    -28.0000      0.0000     -6.7000   4.000E+00   2.000E-02   0.000E+00   0.000E+00           T           F   0.000E+00   1.200E+00   1.000E+00   1.000E+00   0.000E+00   0.000E+00   1.000E+00         -           -           -  
   226           1    -28.0000      0.0000     -6.6000   4.000E+00   2.000E-02   0.000E+00   0.000E+00           T           F   0.000E+00   1.200E+00   1.000E+00   1.000E+00   0.000E+00   0.000E+00   1.000E+00         -           -           -  
   227           1    -28.0000      0.0000     -6.5000   4.000E+00   2.000E-02   0.000E+00   0.000E+00           T           F   0.000E+00   1.200E+00   1.000E+00   1.000E+00   0.000E+00   0.000E+00   1.000E+00         -           -           -  
   228           1    -28.0000      0.0000     -6.4000   4.000E+00   2.000E-02   0.000E+00   0.000E+00           T           F   0.000E+00   1.200E+00   1.000E+00   1.000E+00   0.000E+00   0.000E+00   1.000E+00         -           -           -  
   229           1    -28.0000      0.0000     -6.3000   4.000E+00   2.000E-02   0.000E+00   0.000E+00           T           F   0.000E+00   1.200E+00   1.000E+00   1.000E+00   0.000E+00   0.000E+00   1.000E+00         -           -           -  
   230           1    -28.0000      0.0000     -6.2000   4.000E+00   2.000E-02   0.000E+00   0.000E+00           T           F   0.000E+00   1.200E+00   1.000E+00   1.000E+00   0.000E+00   0.000E+00   1.000E+00         -           -           -  
   231           1    -28.0000      0.0000     -6.1000   4.000E+00   2.000E-02   0.000E+00   0.000E+00           T           F   0.000E+00   1.200E+00   1.000E+00   1.000E+00   0.000E+00   0.000E+00   1.000E+00         -           -           -  
   232           1    -28.0000      0.0000     -6.0000   4.000E+00   2.000E-02   0.000E+00   0.000E+00           T           F   0.000E+00   1.200E+00   1.000E+00   1.000E+00   0.000E+00   0.000E+00   1.000E+00         -           -           -  
   233           1    -28.0000      0.0000     -5.9000   4.000E+00   2.000E-02   0.000E+00   0.000E+00           T           F   0.000E+00   1.200E+00   1.000E+00   1.000E+00   0.000E+00   0.000E+00   1.000E+00         -           -           -  
   234           1    -28.0000      0.0000     -5.8000   4.000E+00   2.000E-02   0.000E+00   0.000E+00           T           F   0.000E+00   1.200E+00   1.000E+00   1.000E+00   0.000E+00   0.000E+00   1.000E+00         -           -           -  
   235           1    -28.0000      0.0000     -5.7000   4.000E+00   2.000E-02   0.000E+00   0.000E+00           T           F   0.000E+00   1.200E+00   1.000E+00   1.000E+00   0.000E+00   0.000E+00   1.000E+00         -           -           -  
   236           1    -28.0000      0.0000     -5.6000   4.000E+00   2.000E-02   0.000E+00   0.000E+00           T           F   0.000E+00   1.200E+00   1.000E+00   1.000E+00   0.000E+00   0.000E+00   1.000E+00         -           -           -  
   237           1    -28.0000      0.0000     -5.5000   4.000E+00   2.000E-02   0.000E+00   0.000E+00           T           F   0.000E+00   1.200E+00   1.000E+00   1.000E+00   0.000E+00   0.000E+00   1.000E+00         -           -           -  
   238           1    -28.0000      0.0000     -5.4000   4.000E+00   2.000E-02   0.000E+00   0.000E+00           T           F   0.000E+00   1.200E+00   1.000E+00   1.000E+00   0.000E+00   0.000E+00   1.000E+00         -           -           -  
   239           1    -28.0000      0.0000     -5.3000   4.000E+00   2.000E-02   0.000E+00   0.000E+00           T           F   0.000E+00   1.200E+00   1.000E+00   1.000E+00   0.000E+00   0.000E+00   1.000E+00         -           -           -  
   240           1    -28.0000      0.0000     -5.2000   4.000E+00   2.000E-02   0.000E+00   0.000E+00           T           F   0.000E+00   1.200E+00   1.000E+00   1.000E+00   0.000E+00   0.000E+00   1.000E+00         -           -           -  
   241           1    -28.0000      0.0000     -5.1000   4.000E+00   2.000E-02   0.000E+00   0.000E+00           T           F   0.000E+00   1.200E+00   1.000E+00   1.000E+00   0.000E+00   0.000E+00   1.000E+00         -           -           -  
   242           1    -28.0000      0.0000     -5.0000   4.000E+00   2.000E-02   0.000E+00   0.000E+00           T           F   0.000E+00   1.200E+00   1.000E+00   1.000E+00   0.000E+00   0.000E+00   1.000E+00         -           -           -  
   243           1    -28.0000      0.0000     -4.9000   4.000E+00   2.000E-02   0.000E+00   0.000E+00           T           F   0.000E+00   1.200E+00   1.000E+00   1.000E+00   0.000E+00   0.000E+00   1.000E+00         -           -           -  
   244           1    -28.0000      0.0000     -4.8000   4.000E+00   2.000E-02   0.000E+00   0.000E+00           T           F   0.000E+00   1.200E+00   1.000E+00   1.000E+00   0.000E+00   0.000E+00   1.000E+00         -           -           -  
   245           1    -28.0000      0.0000     -4.7000   4.000E+00   2.000E-02   0.000E+00   0.000E+00           T           F   0.000E+00   1.200E+00   1.000E+00   1.000E+00   0.000E+00   0.000E+00   1.000E+00         -           -           -  
   246           1    -28.0000      0.0000     -4.6000   4.000E+00   2.000E-02   0.000E+00   0.000E+00           T           F   0.000E+00   1.200E+00   1.000E+00   1.000E+00   0.000E+00   0.000E+00   1.000E+00         -           -           -  
   247           1    -28.0000      0.0000     -4.5000   4.000E+00   2.000E-02   0.000E+00   0.000E+00           T           F   0.000E+00   1.200E+00   1.000E+00   1.000E+00   0.000E+00   0.000E+00   1.000E+00         -           -           -  
   248           1    -28.0000      0.0000     -4.4000   4.000E+00   2.000E-02   0.000E+00   0.000E+00           T           F   0.000E+00   1.200E+00   1.000E+00   1.000E+00   0.000E+00   0.000E+00   1.000E+00         -           -           -  
   249           1    -28.0000      0.0000     -4.3000   4.000E+00   2.000E-02   0.000E+00   0.000E+00           T           F   0.000E+00   1.200E+00   1.000E+00   1.000E+00   0.000E+00   0.000E+00   1.000E+00         -           -           -  
   250           1    -28.0000      0.0000     -4.2000   4.000E+00   2.000E-02   0.000E+00   0.000E+00           T           F   0.000E+00   1.200E+00   1.000E+00   1.000E+00   0.000E+00   0.000E+00   1.000E+00         -           -           -  
   251           1    -28.0000      0.0000     -4.1000   4.000E+00   2.000E-02   0.000E+00   0.000E+00           T           F   0.000E+00   1.200E+00   1.000E+00   1.000E+00   0.000E+00   0.000E+00   1.000E+00         -           -           -  
   252           1    -28.0000      0.0000     -4.0000   4.000E+00   2.000E-02   0.000E+00   0.000E+00           T           F   0.000E+00   1.200E+00   1.000E+00   1.000E+00   0.000E+00   0.000E+00   1.000E+00         -           -           -  
   253           1    -28.0000      0.0000     -3.9000   4.000E+00   2.000E-02   0.000E+00   0.000E+00           T           F   0.000E+00   1.200E+00   1.000E+00   1.000E+00   0.000E+00   0.000E+00   1.000E+00         -           -           -  
   254           1    -28.0000      0.0000     -3.8000   4.000E+00   2.000E-02   0.000E+00   0.000E+00           T           F   0.000E+00   1.200E+00   1.000E+00   1.000E+00   0.000E+00   0.000E+00   1.000E+00         -           -           -  
   255           1    -28.0000      0.0000     -3.7000   4.000E+00   2.000E-02   0.000E+00   0.000E+00           T           F   0.000E+00   1.200E+00   1.000E+00   1.000E+00   0.000E+00   0.000E+00   1.000E+00         -           -           -  
   256           1    -28.0000      0.0000     -3.6000   4.000E+00   2.000E-02   0.000E+00   0.000E+00           T           F   0.000E+00   1.200E+00   1.000E+00   1.000E+00   0.000E+00   0.000E+00   1.000E+00         -           -           -  
   257           1    -28.0000      0.0000     -3.5000   4.000E+00   2.000E-02   0.000E+00   0.000E+00           T           F   0.000E+00   1.200E+00   1.000E+00   1.000E+00   0.000E+00   0.000E+00   1.000E+00         -           -           -  
   258           1    -28.0000      0.0000     -3.4000   4.000E+00   2.000E-02   0.000E+00   0.000E+00           T           F   0.000E+00   1.200E+00   1.000E+00   1.000E+00   0.000E+00   0.000E+00   1.000E+00         -           -           -  
   259           1    -28.0000      0.0000     -3.3000   4.000E+00   2.000E-02   0.000E+00   0.000E+00           T           F   0.000E+00   1.200E+00   1.000E+00   1.000E+00   0.000E+00   0.000E+00   1.000E+00         -           -           -  
   260           1    -28.0000      0.0000     -3.2000   4.000E+00   2.000E-02   0.000E+00   0.000E+00           T           F   0.000E+00   1.200E+00   1.000E+00   1.000E+00   0.000E+00   0.000E+00   1.000E+00         -           -           -  
   261           1    -28.0000      0.0000     -3.1000   4.000E+00   2.000E-02   0.000E+00   0.000E+00           T           F   0.000E+00   1.200E+00   1.000E+00   1.000E+00   0.000E+00   0.000E+00   1.000E+00         -           -           -  
   262           1    -28.0000      0.0000     -3.0000   4.000E+00   2.000E-02   0.000E+00   0.000E+00           T           F   0.000E+00   1.200E+00   1.000E+00   1.000E+00   0.000E+00   0.000E+00   1.000E+00         -           -           -  
   263           1    -28.0000      0.0000     -2.9000   4.000E+00   2.000E-02   0.000E+00   0.000E+00           T           F   0.000E+00   1.200E+00   1.000E+00   1.000E+00   0.000E+00   0.000E+00   1.000E+00         -           -           -  
   264           1    -28.0000      0.0000     -2.8000   4.000E+00   2.000E-02   0.000E+00   0.000E+00           T           F   0.000E+00   1.200E+00   1.000E+00   1.000E+00   0.000E+00   0.000E+00   1.000E+00         -           -           -  
   265           1    -28.0000      0.0000     -2.7000   4.000E+00   2.000E-02   0.000E+00   0.000E+00           T           F   0.000E+00   1.200E+00   1.000E+00   1.000E+00   0.000E+00   0.000E+00   1.000E+00         -           -           -  
   266           1    -28.0000      0.0000     -2.6000   4.000E+00   2.000E-02   0.000E+00   0.000E+00           T           F   0.000E+00   1.200E+00   1.000E+00   1.000E+00   0.000E+00   0.000E+00   1.000E+00         -           -           -  
   267           1    -28.0000      0.0000     -2.5000   4.000E+00   2.000E-02   0.000E+00   0.000E+00           T           F   0.000E+00   1.200E+00   1.000E+00   1.000E+00   0.000E+00   0.000E+00   1.000E+00         -           -           -  
   268           1    -28.0000      0.0000     -2.4000   4.000E+00   2.000E-02   0.000E+00   0.000E+00           T           F   0.000E+00   1.200E+00   1.000E+00   1.000E+00   0.000E+00   0.000E+00   1.000E+00         -           -           -  
   269           1    -28.0000      0.0000     -2.3000   4.000E+00   2.000E-02   0.000E+00   0.000E+00           T           F   0.000E+00   1.200E+00   1.000E+00   1.000E+00   0.000E+00   0.000E+00   1.000E+00         -           -           -  
   270           1    -28.0000      0.0000     -2.2000   4.000E+00   2.000E-02   0.000E+00   0.000E+00           T           F   0.000E+00   1.200E+00   1.000E+00   1.000E+00   0.000E+00   0.000E+00   1.000E+00         -           -           -  
   271           1    -28.0000      0.0000     -2.1000   4.000E+00   2.000E-02   0.000E+00   0.000E+00           T           F   0.000E+00   1.200E+00   1.000E+00   1.000E+00   0.000E+00   0.000E+00   1.000E+00         -           -           -  
   272           1    -28.0000      0.0000     -2.0000   4.000E+00   2.000E-02   0.000E+00   0.000E+00           T           F   0.000E+00   1.200E+00   1.000E+00   1.000E+00   0.000E+00   0.000E+00   1.000E+00         -           -           -  
   273           1    -28.0000      0.0000     -1.9000   4.000E+00   2.000E-02   0.000E+00   0.000E+00           T           F   0.000E+00   1.200E+00   1.000E+00   1.000E+00   0.000E+00   0.000E+00   1.000E+00         -           -           -  
   274           1    -28.0000      0.0000     -1.8000   4.000E+00   2.000E-02   0.000E+00   0.000E+00           T           F   0.000E+00   1.200E+00   1.000E+00   1.000E+00   0.000E+00   0.000E+00   1.000E+00         -           -           -  
   275           1    -28.0000      0.0000     -1.7000   4.000E+00   2.000E-02   0.000E+00   0.000E+00           T           F   0.000E+00   1.200E+00   1.000E+00   1.000E+00   0.000E+00   0.000E+00   1.000E+00         -           -           -  
   276           1    -28.0000      0.0000     -1.6000   4.000E+00   2.000E-02   0.000E+00   0.000E+00           T           F   0.000E+00   1.200E+00   1.000E+00   1.000E+00   0.000E+00   0.000E+00   1.000E+00         -           -           -  
   277           1    -28.0000      0.0000     -1.5000   4.000E+00   2.000E-02   0.000E+00   0.000E+00           T           F   0.000E+00   1.200E+00   1.000E+00   1.000E+00   0.000E+00   0.000E+00   1.000E+00         -           -           -  
   278           1    -28.0000      0.0000     -1.4000   4.000E+00   2.000E-02   0.000E+00   0.000E+00           T           F   0.000E+00   1.200E+00   1.000E+00   1.000E+00   0.000E+00   0.000E+00   1.000E+00         -           -           -  
   279           1    -28.0000      0.0000     -1.3000   4.000E+00   2.000E-02   0.000E+00   0.000E+00           T           F   0.000E+00   1.200E+00   1.000E+00   1.000E+00   0.000E+00   0.000E+00   1.000E+00         -           -           -  
   280           1    -28.0000      0.0000     -1.2000   4.000E+00   2.000E-02   0.000E+00   0.000E+00           T           F   0.000E+00   1.200E+00   1.000E+00   1.000E+00   0.000E+00   0.000E+00   1.000E+00         -           -           -  
   281           1    -28.0000      0.0000     -1.1000   4.000E+00   2.000E-02   0.000E+00   0.000E+00           T           F   0.000E+00   1.200E+00   1.000E+00   1.000E+00   0.000E+00   0.000E+00   1.000E+00         -           -           -  
   282           1    -28.0000      0.0000     -1.0000   4.000E+00   2.000E-02   0.000E+00   0.000E+00           T           F   0.000E+00   1.200E+00   1.000E+00   1.000E+00   0.000E+00   0.000E+00   1.000E+00         -           -           -  
   283           1    -28.0000      0.0000     -0.9000   4.000E+00   2.000E-02   0.000E+00   0.000E+00           T           F   0.000E+00   1.200E+00   1.000E+00   1.000E+00   0.000E+00   0.000E+00   1.000E+00         -           -           -  
   284           1    -28.0000      0.0000     -0.8000   4.000E+00   2.000E-02   0.000E+00   0.000E+00           T           F   0.000E+00   1.200E+00   1.000E+00   1.000E+00   0.000E+00   0.000E+00   1.000E+00         -           -           -  
   285           1    -28.0000      0.0000     -0.7000   4.000E+00   2.000E-02   0.000E+00   0.000E+00           T           F   0.000E+00   1.200E+00   1.000E+00   1.000E+00   0.000E+00   0.000E+00   1.000E+00         -           -           -  
   286           1    -28.0000      0.0000     -0.6000   4.000E+00   2.000E-02   0.000E+00   0.000E+00           T           F   0.000E+00   1.200E+00   1.000E+00   1.000E+00   0.000E+00   0.000E+00   1.000E+00         -           -           -  
   287           1    -28.0000      0.0000     -0.5000   4.000E+00   2.000E-02   0.000E+00   0.000E+00           T           F   0.000E+00   1.200E+00   1.000E+00   1.000E+00   0.000E+00   0.000E+00   1.000E+00         -           -           -  
   288           1    -28.0000      0.0000     -0.4000   4.000E+00   2.000E-02   0.000E+00   0.000E+00           T           F   0.000E+00   1.200E+00   1.000E+00   1.000E+00   0.000E+00   0.000E+00   1.000E+00         -           -           -  
   289           1    -28.0000      0.0000     -0.3000   4.000E+00   2.000E-02   0.000E+00   0.000E+00           T           F   0.000E+00   1.200E+00   1.000E+00   1.000E+00   0.000E+00   0.000E+00   1.000E+00         -           -           -  
   290           1    -28.0000      0.0000     -0.2000   4.000E+00   2.000E-02   0.000E+00   0.000E+00           T           F   0.000E+00   1.200E+00   1.000E+00   1.000E+00   0.000E+00   0.000E+00   1.000E+00         -           -           -  
   291           1    -28.0000      0.0000     -0.1000   4.000E+00   2.000E-02   0.000E+00   0.000E+00           T           F   0.000E+00   1.200E+00   1.000E+00   1.000E+00   0.000E+00   0.000E+00   1.000E+00         -           -           -  
   292           1    -28.0000      0.0000      0.0000   4.000E+00   2.000E-02   0.000E+00   0.000E+00           T           F   0.000E+00   1.200E+00   1.000E+00   1.000E+00   0.000E+00   0.000E+00   1.000E+00         -           -           -  
   293           1    -28.0000      0.0000      0.1000   4.000E+00   2.000E-02   0.000E+00   0.000E+00           T           F   0.000E+00   1.200E+00   1.000E+00   1.000E+00   0.000E+00   0.000E+00   1.000E+00         -           -           -  
   294           1    -28.0000      0.0000      0.2000   4.000E+00   2.000E-02   0.000E+00   0.000E+00           T           F   0.000E+00   1.200E+00   1.000E+00   1.000E+00   0.000E+00   0.000E+00   1.000E+00         -           -           -  
   295           1    -28.0000      0.0000      0.3000   4.000E+00   2.000E-02   0.000E+00   0.000E+00           T           F   0.000E+00   1.200E+00   1.000E+00   1.000E+00   0.000E+00   0.000E+00   1.000E+00         -           -           -  
   296           1    -28.0000      0.0000      0.4000   4.000E+00   2.000E-02   0.000E+00   0.000E+00           T           F   0.000E+00   1.200E+00   1.000E+00   1.000E+00   0.000E+00   0.000E+00   1.000E+00         -           -           -  
   297           1    -28.0000      0.0000      0.5000   4.000E+00   2.000E-02   0.000E+00   0.000E+00           T           F   0.000E+00   1.200E+00   1.000E+00   1.000E+00   0.000E+00   0.000E+00   1.000E+00         -           -           -  
   298           1    -28.0000      0.0000      0.6000   4.000E+00   2.000E-02   0.000E+00   0.000E+00           T           F   0.000E+00   1.200E+00   1.000E+00   1.000E+00   0.000E+00   0.000E+00   1.000E+00         -           -           -  
   299           1    -28.0000      0.0000      0.7000   4.000E+00   2.000E-02   0.000E+00   0.000E+00           T           F   0.000E+00   1.200E+00   1.000E+00   1.000E+00   0.000E+00   0.000E+00   1.000E+00         -           -           -  
   300           1    -28.0000      0.0000      0.8000   4.000E+00   2.000E-02   0.000E+00   0.000E+00           T           F   0.000E+00   1.200E+00   1.000E+00   1.000E+00   0.000E+00   0.000E+00   1.000E+00         -           -           -  
   301           1    -28.0000      0.0000      0.9000   4.000E+00   2.000E-02   0.000E+00   0.000E+00           T           F   0.000E+00   1.200E+00   1.000E+00   1.000E+00   0.000E+00   0.000E+00   1.000E+00         -           -           -  
   302           1    -28.0000      0.0000      1.0000   4.000E+00   2.000E-02   0.000E+00   0.000E+00           T           F   0.000E+00   1.200E+00   1.000E+00   1.000E+00   0.000E+00   0.000E+00   1.000E+00         -           -           -  
   303           1    -28.0000      0.0000      1.1000   4.000E+00   2.000E-02   0.000E+00   0.000E+00           T           F   0.000E+00   1.200E+00   1.000E+00   1.000E+00   0.000E+00   0.000E+00   1.000E+00         -           -           -  
   304           1    -28.0000      0.0000      1.2000   4.000E+00   2.000E-02   0.000E+00   0.000E+00           T           F   0.000E+00   1.200E+00   1.000E+00   1.000E+00   0.000E+00   0.000E+00   1.000E+00         -           -           -  
   305           1    -28.0000      0.0000      1.3000   4.000E+00   2.000E-02   0.000E+00   0.000E+00           T           F   0.000E+00   1.200E+00   1.000E+00   1.000E+00   0.000E+00   0.000E+00   1.000E+00         -           -           -  
   306           1    -28.0000      0.0000      1.4000   4.000E+00   2.000E-02   0.000E+00   0.000E+00           T           F   0.000E+00   1.200E+00   1.000E+00   1.000E+00   0.000E+00   0.000E+00   1.000E+00         -           -           -  
   307           1    -28.0000      0.0000      1.5000   4.000E+00   2.000E-02   0.000E+00   0.000E+00           T           F   0.000E+00   1.200E+00   1.000E+00   1.000E+00   0.000E+00   0.000E+00   1.000E+00         -           -           -  
   308           1    -28.0000      0.0000      1.6000   4.000E+00   2.000E-02   0.000E+00   0.000E+00           T           F   0.000E+00   1.200E+00   1.000E+00   1.000E+00   0.000E+00   0.000E+00   1.000E+00         -           -           -  
   309           1    -28.0000      0.0000      1.7000   4.000E+00   2.000E-02   0.000E+00   0.000E+00           T           F   0.000E+00   1.200E+00   1.000E+00   1.000E+00   0.000E+00   0.000E+00   1.000E+00         -           -           -  
[...]
       2796     8.74200E+01     2.92796E+01     0.00000E+00     0.00000E+00          0.00000E+00
       2797     8.74826E+01     2.92901E+01     0.00000E+00     0.00000E+00         -0.00000E+00
       2798     8.75451E+01     2.93006E+01     0.00000E+00     0.00000E+00         -0.00000E+00
       2799     8.76077E+01     2.93111E+01     0.00000E+00     0.00000E+00          0.00000E+00
       2800     8.76703E+01     2.93215E+01     0.00000E+00     0.00000E+00          0.00000E+00
       2801     8.77330E+01     2.93320E+01     0.00000E+00     0.00000E+00          0.00000E+00
       2802     8.77956E+01     2.93425E+01     0.00000E+00     0.00000E+00          0.00000E+00
       2803     8.78583E+01     2.93529E+01     0.00000E+00    -0.00000E+00          0.00000E+00
       2804     8.79210E+01     2.93634E+01     0.00000E+00    -0.00000E+00          0.00000E+00
       2805     8.79837E+01     2.93739E+01     0.00000E+00     0.00000E+00         -0.00000E+00
       2806     8.80465E+01     2.93844E+01     0.00000E+00     0.00000E+00          0.00000E+00
       2807     8.81092E+01     2.93948E+01     0.00000E+00     0.00000E+00          0.00000E+00
       2808     8.81720E+01     2.94053E+01     0.00000E+00     0.00000E+00          0.00000E+00
       2809     8.82348E+01     2.94158E+01     0.00000E+00     0.00000E+00          0.00000E+00
       2810     8.82977E+01     2.94263E+01     0.00000E+00     0.00000E+00          0.00000E+00
       2811     8.83605E+01     2.94367E+01     0.00000E+00     0.00000E+00          0.00000E+00
       2812     8.84234E+01     2.94472E+01     0.00000E+00     0.00000E+00         -0.00000E+00
       2813     8.84863E+01     2.94577E+01     0.00000E+00    -0.00000E+00          0.00000E+00
       2814     8.85492E+01     2.94681E+01     0.00000E+00    -0.00000E+00          0.00000E+00
       2815     8.86122E+01     2.94786E+01     0.00000E+00     0.00000E+00          0.00000E+00
       2816     8.86751E+01     2.94891E+01     0.00000E+00     0.00000E+00          0.00000E+00
       2817     8.87381E+01     2.94996E+01     0.00000E+00     0.00000E+00          0.00000E+00
       2818     8.88011E+01     2.95100E+01     0.00000E+00    -0.00000E+00          0.00000E+00
       2819     8.88642E+01     2.95205E+01     0.00000E+00     0.00000E+00         -0.00000E+00
       2820     8.89272E+01     2.95310E+01     0.00000E+00    -0.00000E+00          0.00000E+00
       2821     8.89903E+01     2.95414E+01     0.00000E+00     0.00000E+00          0.00000E+00
       2822     8.90534E+01     2.95519E+01     0.00000E+00     0.00000E+00          0.00000E+00
       2823     8.91165E+01     2.95624E+01     0.00000E+00     0.00000E+00          0.00000E+00
       2824     8.91797E+01     2.95729E+01     0.00000E+00     0.00000E+00          0.00000E+00
       2825     8.92429E+01     2.95833E+01     0.00000E+00     0.00000E+00          0.00000E+00
       2826     8.93061E+01     2.95938E+01     0.00000E+00     0.00000E+00         -0.00000E+00
       2827     8.93693E+01     2.96043E+01     0.00000E+00     0.00000E+00          0.00000E+00
       2828     8.94325E+01     2.96147E+01     0.00000E+00    -0.00000E+00          0.00000E+00
       2829     8.94958E+01     2.96252E+01     0.00000E+00     0.00000E+00          0.00000E+00
       2830     8.95590E+01     2.96357E+01     0.00000E+00     0.00000E+00          0.00000E+00
       2831     8.96223E+01     2.96462E+01     0.00000E+00     0.00000E+00         -0.00000E+00
       2832     8.96857E+01     2.96566E+01     0.00000E+00     0.00000E+00         -0.00000E+00
       2833     8.97490E+01     2.96671E+01     0.00000E+00     0.00000E+00          0.00000E+00
       2834     8.98124E+01     2.96776E+01     0.00000E+00     0.00000E+00          0.00000E+00
       2835     8.98758E+01     2.96881E+01     0.00000E+00     0.00000E+00          0.00000E+00
       2836     8.99392E+01     2.96985E+01     0.00000E+00     0.00000E+00          0.00000E+00
       2837     9.00026E+01     2.97090E+01     0.00000E+00     0.00000E+00          0.00000E+00
       2838     9.00661E+01     2.97195E+01     0.00000E+00     0.00000E+00          0.00000E+00
       2839     9.01296E+01     2.97299E+01     0.00000E+00     0.00000E+00          0.00000E+00
       2840     9.01931E+01     2.97404E+01     0.00000E+00     0.00000E+00         -0.00000E+00
       2841     9.02566E+01     2.97509E+01     0.00000E+00     0.00000E+00          0.00000E+00
       2842     9.03202E+01     2.97614E+01     0.00000E+00     0.00000E+00         -0.00000E+00
       2843     9.03837E+01     2.97718E+01     0.00000E+00     0.00000E+00          0.00000E+00
       2844     9.04473E+01     2.97823E+01     0.00000E+00     0.00000E+00          0.00000E+00
       2845     9.05109E+01     2.97928E+01     0.00000E+00    -0.00000E+00          0.00000E+00
       2846     9.05746E+01     2.98032E+01     0.00000E+00     0.00000E+00         -0.00000E+00
       2847     9.06382E+01     2.98137E+01     0.00000E+00     0.00000E+00         -0.00000E+00
       2848     9.07019E+01     2.98242E+01     0.00000E+00     0.00000E+00         -0.00000E+00
       2849     9.07656E+01     2.98347E+01     0.00000E+00     0.00000E+00         -0.00000E+00
       2850     9.08294E+01     2.98451E+01     0.00000E+00     0.00000E+00         -0.00000E+00
       2851     9.08931E+01     2.98556E+01     0.00000E+00    -0.00000E+00          0.00000E+00
       2852     9.09569E+01     2.98661E+01     0.00000E+00     0.00000E+00         -0.00000E+00
       2853     9.10207E+01     2.98765E+01     0.00000E+00     0.00000E+00          0.00000E+00
       2854     9.10845E+01     2.98870E+01     0.00000E+00     0.00000E+00         -0.00000E+00
       2855     9.11483E+01     2.98975E+01     0.00000E+00     0.00000E+00         -0.00000E+00
       2856     9.12122E+01     2.99080E+01     0.00000E+00     0.00000E+00          0.00000E+00
       2857     9.12761E+01     2.99184E+01     0.00000E+00     0.00000E+00          0.00000E+00
       2858     9.13400E+01     2.99289E+01     0.00000E+00     0.00000E+00          0.00000E+00
       2859     9.14039E+01     2.99394E+01     0.00000E+00     0.00000E+00          0.00000E+00
       2860     9.14679E+01     2.99499E+01     0.00000E+00     0.00000E+00         -0.00000E+00
       2861     9.15319E+01     2.99603E+01     0.00000E+00    -0.00000E+00          0.00000E+00
       2862     9.15958E+01     2.99708E+01     0.00000E+00     0.00000E+00         -0.00000E+00
       2863     9.16599E+01     2.99813E+01     0.00000E+00     0.00000E+00         -0.00000E+00
       2864     9.17239E+01     2.99917E+01     0.00000E+00     0.00000E+00          0.00000E+00
       2865     9.17880E+01     3.00022E+01     0.00000E+00     0.00000E+00         -0.00000E+00
       2866     9.18521E+01     3.00127E+01     0.00000E+00     0.00000E+00          0.00000E+00
       2867     9.19162E+01     3.00232E+01     0.00000E+00    -0.00000E+00          0.00000E+00
       2868     9.19803E+01     3.00336E+01     0.00000E+00     0.00000E+00          0.00000E+00
       2869     9.20445E+01     3.00441E+01     0.00000E+00     0.00000E+00          0.00000E+00
       2870     9.21086E+01     3.00546E+01     0.00000E+00     0.00000E+00         -0.00000E+00
       2871     9.21728E+01     3.00650E+01     0.00000E+00     0.00000E+00          0.00000E+00
       2872     9.22371E+01     3.00755E+01     0.00000E+00     0.00000E+00          0.00000E+00
       2873     9.23013E+01     3.00860E+01     0.00000E+00     0.00000E+00          0.00000E+00
       2874     9.23656E+01     3.00965E+01     0.00000E+00     0.00000E+00          0.00000E+00
       2875     9.24299E+01     3.01069E+01     0.00000E+00     0.00000E+00         -0.00000E+00
       2876     9.24942E+01     3.01174E+01     0.00000E+00     0.00000E+00          0.00000E+00
       2877     9.25585E+01     3.01279E+01     0.00000E+00     0.00000E+00         -0.00000E+00
       2878     9.26228E+01     3.01383E+01     0.00000E+00     0.00000E+00          0.00000E+00
       2879     9.26872E+01     3.01488E+01     0.00000E+00     0.00000E+00          0.00000E+00
       2880     9.27516E+01     3.01593E+01     0.00000E+00    -0.00000E+00          0.00000E+00
       2881     9.28161E+01     3.01698E+01     0.00000E+00     0.00000E+00          0.00000E+00
       2882     9.28805E+01     3.01802E+01     0.00000E+00     0.00000E+00          0.00000E+00
       2883     9.29450E+01     3.01907E+01     0.00000E+00    -0.00000E+00          0.00000E+00
       2884     9.30095E+01     3.02012E+01     0.00000E+00     0.00000E+00          0.00000E+00
       2885     9.30740E+01     3.02116E+01     0.00000E+00    -0.00000E+00          0.00000E+00
       2886     9.31385E+01     3.02221E+01     0.00000E+00     0.00000E+00          0.00000E+00
       2887     9.32030E+01     3.02326E+01     0.00000E+00     0.00000E+00          0.00000E+00
       2888     9.32676E+01     3.02431E+01     0.00000E+00     0.00000E+00          0.00000E+00
       2889     9.33322E+01     3.02535E+01     0.00000E+00     0.00000E+00          0.00000E+00
       2890     9.33969E+01     3.02640E+01     0.00000E+00     0.00000E+00          0.00000E+00
       2891     9.34615E+01     3.02745E+01     0.00000E+00     0.00000E+00         -0.00000E+00
       2892     9.35262E+01     3.02850E+01     0.00000E+00     0.00000E+00          0.00000E+00
       2893     9.35909E+01     3.02954E+01     0.00000E+00     0.00000E+00          0.00000E+00
       2894     9.36556E+01     3.03059E+01     0.00000E+00     0.00000E+00          0.00000E+00
       2895     9.37203E+01     3.03164E+01     0.00000E+00     0.00000E+00          0.00000E+00
       2896     9.37851E+01     3.03268E+01     0.00000E+00     0.00000E+00         -0.00000E+00
       2897     9.38498E+01     3.03373E+01     0.00000E+00     0.00000E+00          0.00000E+00
       2898     9.39146E+01     3.03478E+01     0.00000E+00     0.00000E+00          0.00000E+00
       2899     9.39795E+01     3.03583E+01     0.00000E+00     0.00000E+00          0.00000E+00
       2900     9.40443E+01     3.03687E+01     0.00000E+00    -0.00000E+00          0.00000E+00
       2901     9.41092E+01     3.03792E+01     0.00000E+00     0.00000E+00         -0.00000E+00
       2902     9.41741E+01     3.03897E+01     0.00000E+00     0.00000E+00          0.00000E+00
       2903     9.42390E+01     3.04001E+01     0.00000E+00     0.00000E+00          0.00000E+00
       2904     9.43039E+01     3.04106E+01     0.00000E+00    -0.00000E+00          0.00000E+00
       2905     9.43689E+01     3.04211E+01     0.00000E+00    -0.00000E+00          0.00000E+00
       2906     9.44339E+01     3.04316E+01     0.00000E+00     0.00000E+00         -0.00000E+00
       2907     9.44989E+01     3.04420E+01     0.00000E+00     0.00000E+00          0.00000E+00
       2908     9.45639E+01     3.04525E+01     0.00000E+00     0.00000E+00         -0.00000E+00
       2909     9.46289E+01     3.04630E+01     0.00000E+00     0.00000E+00         -0.00000E+00
       2910     9.46940E+01     3.04734E+01     0.00000E+00    -0.00000E+00          0.00000E+00
       2911     9.47591E+01     3.04839E+01     0.00000E+00     0.00000E+00          0.00000E+00
       2912     9.48242E+01     3.04944E+01     0.00000E+00    -0.00000E+00          0.00000E+00
       2913     9.48894E+01     3.05049E+01     0.00000E+00     0.00000E+00          0.00000E+00
       2914     9.49545E+01     3.05153E+01     0.00000E+00     0.00000E+00          0.00000E+00
       2915     9.50197E+01     3.05258E+01     0.00000E+00     0.00000E+00         -0.00000E+00
       2916     9.50849E+01     3.05363E+01     0.00000E+00     0.00000E+00         -0.00000E+00
       2917     9.51501E+01     3.05468E+01     0.00000E+00     0.00000E+00          0.00000E+00
       2918     9.52154E+01     3.05572E+01     0.00000E+00    -0.00000E+00          0.00000E+00
       2919     9.52807E+01     3.05677E+01     0.00000E+00     0.00000E+00          0.00000E+00
       2920     9.53459E+01     3.05782E+01     0.00000E+00     0.00000E+00         -0.00000E+00
       2921     9.54113E+01     3.05886E+01     0.00000E+00     0.00000E+00         -0.00000E+00
       2922     9.54766E+01     3.05991E+01     0.00000E+00    -0.00000E+00          0.00000E+00
       2923     9.55420E+01     3.06096E+01     0.00000E+00     0.00000E+00          0.00000E+00
       2924     9.56073E+01     3.06201E+01     0.00000E+00    -0.00000E+00          0.00000E+00
       2925     9.56728E+01     3.06305E+01     0.00000E+00     0.00000E+00          0.00000E+00
       2926     9.57382E+01     3.06410E+01     0.00000E+00     0.00000E+00         -0.00000E+00
       2927     9.58036E+01     3.06515E+01     0.00000E+00    -0.00000E+00          0.00000E+00
       2928     9.58691E+01     3.06619E+01     0.00000E+00     0.00000E+00          0.00000E+00
       2929     9.59346E+01     3.06724E+01     0.00000E+00     0.00000E+00          0.00000E+00
       2930     9.60001E+01     3.06829E+01     0.00000E+00    -0.00000E+00          0.00000E+00
       2931     9.60657E+01     3.06934E+01     0.00000E+00    -0.00000E+00          0.00000E+00
       2932     9.61312E+01     3.07038E+01     0.00000E+00     0.00000E+00         -0.00000E+00
       2933     9.61968E+01     3.07143E+01     0.00000E+00     0.00000E+00          0.00000E+00
       2934     9.62624E+01     3.07248E+01     0.00000E+00     0.00000E+00          0.00000E+00
       2935     9.63281E+01     3.07352E+01     0.00000E+00     0.00000E+00          0.00000E+00
       2936     9.63937E+01     3.07457E+01     0.00000E+00    -0.00000E+00          0.00000E+00
       2937     9.64594E+01     3.07562E+01     0.00000E+00     0.00000E+00          0.00000E+00
       2938     9.65251E+01     3.07667E+01     0.00000E+00    -0.00000E+00          0.00000E+00
       2939     9.65908E+01     3.07771E+01     0.00000E+00     0.00000E+00          0.00000E+00
       2940     9.66565E+01     3.07876E+01     0.00000E+00     0.00000E+00         -0.00000E+00
       2941     9.67223E+01     3.07981E+01     0.00000E+00     0.00000E+00          0.00000E+00
       2942     9.67881E+01     3.08086E+01     0.00000E+00    -0.00000E+00          0.00000E+00
       2943     9.68539E+01     3.08190E+01     0.00000E+00     0.00000E+00          0.00000E+00
       2944     9.69197E+01     3.08295E+01     0.00000E+00     0.00000E+00         -0.00000E+00
       2945     9.69856E+01     3.08400E+01     0.00000E+00     0.00000E+00          0.00000E+00
       2946     9.70514E+01     3.08504E+01     0.00000E+00     0.00000E+00         -0.00000E+00
       2947     9.71174E+01     3.08609E+01     0.00000E+00     0.00000E+00         -0.00000E+00
       2948     9.71833E+01     3.08714E+01     0.00000E+00     0.00000E+00          0.00000E+00
       2949     9.72492E+01     3.08819E+01     0.00000E+00     0.00000E+00          0.00000E+00
       2950     9.73152E+01     3.08923E+01     0.00000E+00    -0.00000E+00          0.00000E+00
       2951     9.73812E+01     3.09028E+01     0.00000E+00     0.00000E+00          0.00000E+00
       2952     9.74472E+01     3.09133E+01     0.00000E+00    -0.00000E+00          0.00000E+00
       2953     9.75132E+01     3.09237E+01     0.00000E+00     0.00000E+00         -0.00000E+00
       2954     9.75793E+01     3.09342E+01     0.00000E+00     0.00000E+00         -0.00000E+00
       2955     9.76453E+01     3.09447E+01     0.00000E+00     0.00000E+00          0.00000E+00
       2956     9.77114E+01     3.09552E+01     0.00000E+00    -0.00000E+00          0.00000E+00
       2957     9.77776E+01     3.09656E+01     0.00000E+00    -0.00000E+00          0.00000E+00
       2958     9.78437E+01     3.09761E+01     0.00000E+00     0.00000E+00          0.00000E+00
       2959     9.79099E+01     3.09866E+01     0.00000E+00    -0.00000E+00          0.00000E+00
       2960     9.79761E+01     3.09970E+01     0.00000E+00     0.00000E+00         -0.00000E+00
       2961     9.80423E+01     3.10075E+01     0.00000E+00    -0.00000E+00          0.00000E+00
       2962     9.81085E+01     3.10180E+01     0.00000E+00     0.00000E+00          0.00000E+00
       2963     9.81748E+01     3.10285E+01     0.00000E+00     0.00000E+00          0.00000E+00
       2964     9.82410E+01     3.10389E+01     0.00000E+00    -0.00000E+00          0.00000E+00
       2965     9.83073E+01     3.10494E+01     0.00000E+00    -0.00000E+00          0.00000E+00
       2966     9.83737E+01     3.10599E+01     0.00000E+00     0.00000E+00         -0.00000E+00
       2967     9.84400E+01     3.10704E+01     0.00000E+00    -0.00000E+00          0.00000E+00
       2968     9.85064E+01     3.10808E+01     0.00000E+00    -0.00000E+00          0.00000E+00
       2969     9.85728E+01     3.10913E+01     0.00000E+00     0.00000E+00         -0.00000E+00
       2970     9.86392E+01     3.11018E+01     0.00000E+00     0.00000E+00          0.00000E+00
       2971     9.87056E+01     3.11122E+01     0.00000E+00     0.00000E+00         -0.00000E+00
       2972     9.87721E+01     3.11227E+01     0.00000E+00     0.00000E+00          0.00000E+00
       2973     9.88385E+01     3.11332E+01     0.00000E+00     0.00000E+00         -0.00000E+00
       2974     9.89051E+01     3.11437E+01     0.00000E+00     0.00000E+00          0.00000E+00
       2975     9.89716E+01     3.11541E+01     0.00000E+00     0.00000E+00          0.00000E+00
       2976     9.90381E+01     3.11646E+01     0.00000E+00     0.00000E+00          0.00000E+00
       2977     9.91047E+01     3.11751E+01     0.00000E+00     0.00000E+00          0.00000E+00
       2978     9.91713E+01     3.11855E+01     0.00000E+00     0.00000E+00          0.00000E+00
       2979     9.92379E+01     3.11960E+01     0.00000E+00     0.00000E+00         -0.00000E+00
       2980     9.93045E+01     3.12065E+01     0.00000E+00    -0.00000E+00          0.00000E+00
       2981     9.93712E+01     3.12170E+01     0.00000E+00     0.00000E+00          0.00000E+00
       2982     9.94379E+01     3.12274E+01     0.00000E+00     0.00000E+00          0.00000E+00
       2983     9.95046E+01     3.12379E+01     0.00000E+00     0.00000E+00         -0.00000E+00
       2984     9.95713E+01     3.12484E+01     0.00000E+00     0.00000E+00          0.00000E+00
       2985     9.96380E+01     3.12588E+01     0.00000E+00     0.00000E+00          0.00000E+00
       2986     9.97048E+01     3.12693E+01     0.00000E+00     0.00000E+00          0.00000E+00
       2987     9.97716E+01     3.12798E+01     0.00000E+00    -0.00000E+00          0.00000E+00
       2988     9.98384E+01     3.12903E+01     0.00000E+00     0.00000E+00          0.00000E+00
       2989     9.99053E+01     3.13007E+01     0.00000E+00     0.00000E+00         -0.00000E+00
       2990     9.99721E+01     3.13112E+01     0.00000E+00     0.00000E+00          0.00000E+00
       2991     1.00039E+02     3.13217E+01     0.00000E+00    -0.00000E+00          0.00000E+00
       2992     1.00106E+02     3.13322E+01     0.00000E+00     0.00000E+00          0.00000E+00
       2993     1.00173E+02     3.13426E+01     0.00000E+00     0.00000E+00          0.00000E+00
       2994     1.00240E+02     3.13531E+01     0.00000E+00     0.00000E+00          0.00000E+00
       2995     1.00307E+02     3.13636E+01     0.00000E+00    -0.00000E+00          0.00000E+00
       2996     1.00374E+02     3.13740E+01     0.00000E+00    -0.00000E+00          0.00000E+00
       2997     1.00441E+02     3.13845E+01     0.00000E+00     0.00000E+00          0.00000E+00
       2998     1.00508E+02     3.13950E+01     0.00000E+00     0.00000E+00          0.00000E+00
       2999     1.00575E+02     3.14055E+01     0.00000E+00     0.00000E+00          0.00000E+00
       3000     1.00642E+02     3.14159E+01     0.00000E+00     0.00000E+00          0.00000E+00

This summary file was closed on 20-Apr-2023 at 13:19:34.

