
 **************************************************************************************************
 OpenFAST

 Copyright (C) 2020 National Renewable Energy Laboratory
 Copyright (C) 2020 Envision Energy USA LTD

 This program is licensed under Apache License Version 2.0 and comes with ABSOLUTELY NO WARRANTY.
 See the "LICENSE" file distributed with this software for details.
 **************************************************************************************************

 OpenFAST-v2.4.0-57-g23caac2a
 Compile Info:
  - Compiler: Intel(R) Fortran Intel(R) 64 Compiler for applications running on Intel(R) 64,
  Version 19.0.8.324 Build 20200220
  - Architecture: 64 bit
  - Precision: double
  - Date: Nov 11 2020
  - Time: 10:33:54
 Execution Info:
  - Date: 11/11/2020
  - Time: 11:27:56-0600

 OpenFAST input file heading:
     FAST Certification Test #24: NREL 5.0 MW Baseline Wind Turbine with OC3 Hywind Configuration,
     for use in offshore analysis

 Running ElastoDyn.
 Nodal outputs section of ElastoDyn input file not found or improperly formatted.
 Running AeroDyn.
 Nodal output section of AeroDyn input file not found or improperly formatted.
 Warning: Turning off Unsteady Aerodynamics because C_nalpha is 0. (node 1, blade 1)
 Warning: Turning off Unsteady Aerodynamics because C_nalpha is 0. (node 2, blade 1)
 Warning: Turning off Unsteady Aerodynamics because C_nalpha is 0. (node 3, blade 1)
 Warning: Turning off Unsteady Aerodynamics because C_nalpha is 0. (node 4, blade 1)
 Warning: Turning off Unsteady Aerodynamics because C_nalpha is 0. (node 1, blade 2)
 Warning: Turning off Unsteady Aerodynamics because C_nalpha is 0. (node 2, blade 2)
 Warning: Turning off Unsteady Aerodynamics because C_nalpha is 0. (node 3, blade 2)
 Warning: Turning off Unsteady Aerodynamics because C_nalpha is 0. (node 4, blade 2)
 Warning: Turning off Unsteady Aerodynamics because C_nalpha is 0. (node 1, blade 3)
 Warning: Turning off Unsteady Aerodynamics because C_nalpha is 0. (node 2, blade 3)
 Warning: Turning off Unsteady Aerodynamics because C_nalpha is 0. (node 3, blade 3)
 Warning: Turning off Unsteady Aerodynamics because C_nalpha is 0. (node 4, blade 3)
 Running InflowWind.

    Reading a 31x31 grid (145 m wide, 17.5 m to 162.5 m above ground) with a characteristic wind
    speed of 12 m/s. This full-field file was generated by TurbSim (v1.06.00, 21-Sep-2012) on
    07-Jan-2014 at 12:50:45.

    Processed 1442 time steps of 20-Hz full-field data (72.05 seconds).
 Running ServoDyn.
 Running ServoDyn Interface for Bladed Controllers (using Intel Fortran for Linux, ).
 Using legacy Bladed DLL interface.
 Running HydroDyn.
  Generating incident wave kinematics and current time history.
  Reading in WAMIT output with root name
  "/home/rmudafor/openfast/build/reg_tests/glue-codes/openfast/5MW_OC3Spar_DLL_WTurb_WavesIrr/../5M
  W_Baseline/HydroData/Spar".
  Computing radiation impulse response functions and wave diffraction forces.


  Time: 0 of 60 seconds.

 FAST_Solution0:CalcOutputs_And_SolveForInputs:SolveOption2:SrvD_CalcOutput:DLL_controller_call:Run
 ning with torque and pitch control of the NREL offshore 5MW baseline wind turbine from DISCON.dll
 as written by J. Jonkman of NREL/NWTC for use in the IEA Annex XXIII OC3 studies.  Includes
 modifications for the Hywind spar.

+                                                                                                  
+ Time: 1 of 60 seconds.  Estimated final completion at 11:28:38.
+                                                                                                  
+ Time: 2 of 60 seconds.  Estimated final completion at 11:28:38.
+                                                                                                  
+ Time: 3 of 60 seconds.  Estimated final completion at 11:28:38.
+                                                                                                  
+ Time: 4 of 60 seconds.  Estimated final completion at 11:28:38.
+                                                                                                  
+ Time: 5 of 60 seconds.  Estimated final completion at 11:28:38.
+                                                                                                  
+ Time: 6 of 60 seconds.  Estimated final completion at 11:28:37.
+                                                                                                  
+ Time: 7 of 60 seconds.  Estimated final completion at 11:28:38.
+                                                                                                  
+ Time: 8 of 60 seconds.  Estimated final completion at 11:28:39.
+                                                                                                  
+ Time: 9 of 60 seconds.  Estimated final completion at 11:28:38.
+                                                                                                  
+ Time: 10 of 60 seconds.  Estimated final completion at 11:28:39.
+                                                                                                  
+ Time: 11 of 60 seconds.  Estimated final completion at 11:28:39.
+                                                                                                  
+ Time: 12 of 60 seconds.  Estimated final completion at 11:28:39.
+                                                                                                  
+ Time: 13 of 60 seconds.  Estimated final completion at 11:28:38.
+                                                                                                  
+ Time: 14 of 60 seconds.  Estimated final completion at 11:28:38.
+                                                                                                  
+ Time: 15 of 60 seconds.  Estimated final completion at 11:28:39.
+                                                                                                  
+ Time: 16 of 60 seconds.  Estimated final completion at 11:28:38.
+                                                                                                  
+ Time: 17 of 60 seconds.  Estimated final completion at 11:28:38.
+                                                                                                  
+ Time: 18 of 60 seconds.  Estimated final completion at 11:28:39.
+                                                                                                  
+ Time: 19 of 60 seconds.  Estimated final completion at 11:28:38.
+                                                                                                  
+ Time: 20 of 60 seconds.  Estimated final completion at 11:28:39.
+                                                                                                  
+ Time: 21 of 60 seconds.  Estimated final completion at 11:28:38.
+                                                                                                  
+ Time: 22 of 60 seconds.  Estimated final completion at 11:28:38.
+                                                                                                  
+ Time: 23 of 60 seconds.  Estimated final completion at 11:28:39.
+                                                                                                  
+ Time: 24 of 60 seconds.  Estimated final completion at 11:28:38.
+                                                                                                  
+ Time: 25 of 60 seconds.  Estimated final completion at 11:28:38.
+                                                                                                  
+ Time: 26 of 60 seconds.  Estimated final completion at 11:28:39.
+                                                                                                  
+ Time: 27 of 60 seconds.  Estimated final completion at 11:28:39.
+                                                                                                  
+ Time: 28 of 60 seconds.  Estimated final completion at 11:28:38.
+                                                                                                  
+ Time: 29 of 60 seconds.  Estimated final completion at 11:28:38.
+                                                                                                  
+ Time: 30 of 60 seconds.  Estimated final completion at 11:28:39.
+                                                                                                  
+ Time: 31 of 60 seconds.  Estimated final completion at 11:28:38.
+                                                                                                  
+ Time: 32 of 60 seconds.  Estimated final completion at 11:28:39.
+                                                                                                  
+ Time: 33 of 60 seconds.  Estimated final completion at 11:28:39.
+                                                                                                  
+ Time: 34 of 60 seconds.  Estimated final completion at 11:28:38.
+                                                                                                  
+ Time: 35 of 60 seconds.  Estimated final completion at 11:28:39.
+                                                                                                  
+ Time: 36 of 60 seconds.  Estimated final completion at 11:28:38.
+                                                                                                  
+ Time: 37 of 60 seconds.  Estimated final completion at 11:28:39.
+                                                                                                  
+ Time: 38 of 60 seconds.  Estimated final completion at 11:28:39.
+                                                                                                  
+ Time: 39 of 60 seconds.  Estimated final completion at 11:28:38.
+                                                                                                  
+ Time: 40 of 60 seconds.  Estimated final completion at 11:28:39.
+                                                                                                  
+ Time: 41 of 60 seconds.  Estimated final completion at 11:28:39.
+                                                                                                  
+ Time: 42 of 60 seconds.  Estimated final completion at 11:28:38.
+                                                                                                  
+ Time: 43 of 60 seconds.  Estimated final completion at 11:28:39.
+                                                                                                  
+ Time: 44 of 60 seconds.  Estimated final completion at 11:28:38.
+                                                                                                  
+ Time: 45 of 60 seconds.  Estimated final completion at 11:28:39.
+                                                                                                  
+ Time: 46 of 60 seconds.  Estimated final completion at 11:28:39.
+                                                                                                  
+ Time: 47 of 60 seconds.  Estimated final completion at 11:28:38.
+                                                                                                  
+ Time: 48 of 60 seconds.  Estimated final completion at 11:28:39.
+                                                                                                  
+ Time: 49 of 60 seconds.  Estimated final completion at 11:28:38.
+                                                                                                  
+ Time: 50 of 60 seconds.  Estimated final completion at 11:28:39.
+                                                                                                  
+ Time: 51 of 60 seconds.  Estimated final completion at 11:28:39.
+                                                                                                  
+ Time: 52 of 60 seconds.  Estimated final completion at 11:28:38.
+                                                                                                  
+ Time: 53 of 60 seconds.  Estimated final completion at 11:28:39.
+                                                                                                  
+ Time: 54 of 60 seconds.  Estimated final completion at 11:28:39.
+                                                                                                  
+ Time: 55 of 60 seconds.  Estimated final completion at 11:28:39.
+                                                                                                  
+ Time: 56 of 60 seconds.  Estimated final completion at 11:28:39.
+                                                                                                  
+ Time: 57 of 60 seconds.  Estimated final completion at 11:28:39.
+                                                                                                  
+ Time: 58 of 60 seconds.  Estimated final completion at 11:28:39.
+                                                                                                  
+ Time: 59 of 60 seconds.  Estimated final completion at 11:28:39.
+                                                                                                  
+ Time: 60 of 60 seconds.  Estimated final completion at 11:28:39.
+                                                                                                  

  Total Real Time:       42.544 seconds
  Total CPU Time:        42.516 seconds
  Simulation CPU Time:   38.344 seconds
  Simulated Time:        60 seconds
  Time Ratio (Sim/CPU):  1.5648

  OpenFAST terminated normally.

MAP++ environment properties (set externally)...
    Gravity constant          [m/s^2]  : 9.81
    Sea density               [kg/m^3] : 1025.00
    Water depth               [m]      : 320.00
    Vessel reference position [m]      : 0.00 , 0.00 , 0.00
