
These predictions were generated by HydroDyn on 11-May-2023 at 10:34:21.




    Time                      Wave1Elev                       HydroFxi                       HydroFyi                       HydroFzi                       HydroMxi                       HydroMyi                       HydroMzi                       PRPSurge
   (sec)                            (m)                            (N)                            (N)                            (N)                          (N-m)                          (N-m)                          (N-m)                            (m)
    0.0000                     -0.38253167E+01                      0.51724480E+06                      0.79603641E+02                      0.83160461E+07                      0.23477482E+04                     -0.96099947E+07                     -0.21787180E+02                      0.00000000E+00
    0.0100                     -0.37875209E+01                     -0.14242222E+06                     -0.16146670E+06                      0.31412661E+07                     -0.47475540E+07                      0.97189623E+07                     -0.18461724E+05                      0.16920580E-04
    0.0200                     -0.37497253E+01                      0.23641425E+06                     -0.16666644E+06                      0.31485007E+07                     -0.49313688E+07                     -0.12959066E+07                     -0.54100180E+05                      0.61660780E-04
    0.0300                     -0.37119296E+01                      0.52534475E+06                     -0.46667661E+05                      0.31602427E+07                     -0.14668296E+07                     -0.97334965E+07                     -0.75487338E+05                      0.12099690E-03
    0.0400                     -0.36741338E+01                      0.58896320E+06                      0.16159488E+06                      0.31748238E+07                      0.45770226E+07                     -0.11644100E+08                     -0.79755826E+05                      0.18570770E-03
    0.0500                     -0.36363380E+01                      0.38190907E+06                      0.36791794E+06                      0.31902566E+07                      0.10583837E+08                     -0.56977347E+07                     -0.34972961E+05                      0.25573990E-03
    0.0600                     -0.35985422E+01                      0.91403259E+05                      0.47223345E+06                      0.32046021E+07                      0.13649665E+08                      0.26665951E+07                      0.55615645E+05                      0.34186030E-03
    0.0700                     -0.35607467E+01                     -0.51100743E+05                      0.44776141E+06                      0.32159290E+07                      0.13004497E+08                      0.67290183E+07                      0.18142388E+06                      0.45785990E-03
    0.0800                     -0.35229509E+01                      0.90731378E+05                      0.33937596E+06                      0.32226121E+07                      0.99600018E+07                      0.25450405E+07                      0.31854114E+06                      0.61206530E-03
    0.0900                     -0.34851551E+01                      0.45034729E+06                      0.23341692E+06                      0.32235230E+07                      0.70341857E+07                     -0.79138676E+07                      0.44568519E+06                      0.80138640E-03
    0.1000                     -0.34473593E+01                      0.83559217E+06                      0.19009579E+06                      0.32182897E+07                      0.59600959E+07                     -0.19041577E+08                      0.53464714E+06                      0.10137710E-02
    0.1100                     -0.34095638E+01                      0.10337664E+07                      0.19967109E+06                      0.32073593E+07                      0.64473086E+07                     -0.24627949E+08                      0.56007547E+06                      0.12345160E-02
    0.1200                     -0.33717680E+01                      0.97728554E+06                      0.19804107E+06                      0.31920131E+07                      0.65995032E+07                     -0.22723886E+08                      0.52472873E+06                      0.14553380E-02
    0.1300                     -0.33339722E+01                      0.76007581E+06                      0.11456769E+06                      0.31740794E+07                      0.43422957E+07                     -0.16077694E+08                      0.43180712E+06                      0.16764860E-02
    0.1400                     -0.32961764E+01                      0.58589836E+06                     -0.63824297E+05                      0.31556341E+07                     -0.71959521E+06                     -0.10641035E+08                      0.30216151E+06                      0.19042480E-02
    0.1500                     -0.32583809E+01                      0.61532294E+06                     -0.28380182E+06                      0.31386416E+07                     -0.70433462E+07                     -0.11104259E+08                      0.16448016E+06                      0.21427860E-02
    0.1600                     -0.32205851E+01                      0.85884164E+06                     -0.45479445E+06                      0.31247505E+07                     -0.11997977E+08                     -0.17783836E+08                      0.48935707E+05                      0.23884680E-02
    0.1700                     -0.31827893E+01                      0.11845922E+07                     -0.51542380E+06                      0.31151763E+07                     -0.13800042E+08                     -0.26854564E+08                     -0.21385044E+05                      0.26292820E-02
    0.1800                     -0.31449935E+01                      0.13671423E+07                     -0.46864260E+06                      0.31105315E+07                     -0.12535298E+08                     -0.31763761E+08                     -0.38084085E+05                      0.28496540E-02
    0.1900                     -0.31071978E+01                      0.13210013E+07                     -0.38070542E+06                      0.31110079E+07                     -0.10126874E+08                     -0.30048406E+08                     -0.41813483E+04                      0.30403100E-02
    0.2000                     -0.30694022E+01                      0.10634547E+07                     -0.32754275E+06                      0.31161436E+07                     -0.87721135E+07                     -0.22230049E+08                      0.57908605E+05                      0.31997320E-02
    0.2100                     -0.30316064E+01                      0.76835811E+06                     -0.34226176E+06                      0.31249219E+07                     -0.94145347E+07                     -0.13384553E+08                      0.12221333E+06                      0.33369110E-02
    0.2200                     -0.29938107E+01                      0.62887522E+06                     -0.39190087E+06                      0.31358425E+07                     -0.11069982E+08                     -0.91432462E+07                      0.16167056E+06                      0.34621730E-02
    0.2300                     -0.29560151E+01                      0.69537052E+06                     -0.40937086E+06                      0.31470172E+07                     -0.11763238E+08                     -0.10959867E+08                      0.15195284E+06                      0.35810740E-02
    0.2400                     -0.29182193E+01                      0.90819599E+06                     -0.34389808E+06                      0.31566112E+07                     -0.99996643E+07                     -0.17085574E+08                      0.83561768E+05                      0.36926810E-02
    0.2500                     -0.28804235E+01                      0.10756801E+07                     -0.20388325E+06                      0.31630279E+07                     -0.60157539E+07                     -0.21921401E+08                     -0.43091550E+05                      0.37896300E-02
    0.2600                     -0.28391309E+01                      0.10616132E+07                     -0.52234438E+05                      0.31648016E+07                     -0.16419086E+07                     -0.21495868E+08                     -0.21471249E+06                      0.38676230E-02
    0.2700                     -0.27978380E+01                      0.83791949E+06                      0.36893096E+05                      0.31620262E+07                      0.95940971E+06                     -0.14974562E+08                     -0.41303229E+06                      0.39284130E-02
    0.2800                     -0.27565451E+01                      0.53113598E+06                      0.31369490E+05                      0.31549830E+07                      0.84678645E+06                     -0.60333005E+07                     -0.61458862E+06                      0.39825600E-02
    0.2900                     -0.27152524E+01                      0.31990807E+06                     -0.38736814E+05                      0.31444158E+07                     -0.11134228E+07                      0.13750795E+06                     -0.79908059E+06                      0.40434500E-02
    0.3000                     -0.26739595E+01                      0.32711100E+06                     -0.10349243E+06                      0.31314566E+07                     -0.28982119E+07                     -0.26908854E+05                     -0.94956006E+06                      0.41209860E-02
    0.3100                     -0.26326666E+01                      0.53569195E+06                     -0.10472814E+06                      0.31174367E+07                     -0.28317457E+07                     -0.60181822E+07                     -0.10558299E+07                      0.42162150E-02
    0.3200                     -0.25913739E+01                      0.80552539E+06                     -0.35400374E+05                      0.31038125E+07                     -0.72962133E+06                     -0.13750618E+08                     -0.11139163E+07                      0.43218570E-02
    0.3300                     -0.25500810E+01                      0.96730294E+06                      0.56722287E+05                      0.30920260E+07                      0.19973849E+07                     -0.18297761E+08                     -0.11255664E+07                      0.44275190E-02
    0.3400                     -0.25087883E+01                      0.93440196E+06                      0.10800677E+06                      0.30833337E+07                      0.34819220E+07                     -0.17149637E+08                     -0.10972616E+07                      0.45263060E-02
    0.3500                     -0.24674954E+01                      0.76162049E+06                      0.86272349E+05                      0.30785765E+07                      0.27806621E+07                     -0.11919779E+08                     -0.10383740E+07                      0.46184800E-02
    0.3600                     -0.24262025E+01                      0.60269223E+06                      0.14415102E+05                      0.30780066E+07                      0.56206014E+06                     -0.71023378E+07                     -0.95696675E+06                      0.47096090E-02
    0.3700                     -0.23849099E+01                      0.60590977E+06                     -0.47802661E+05                      0.30812262E+07                     -0.14265040E+07                     -0.70286543E+07                     -0.85915017E+06                      0.48050430E-02
    0.3800                     -0.23436170E+01                      0.80388114E+06                     -0.46608940E+05                      0.30872809E+07                     -0.16089446E+07                     -0.12654143E+08                     -0.74538890E+06                      0.49042450E-02
    0.3900                     -0.23023243E+01                      0.11089528E+07                      0.23194518E+05                      0.30948192E+07                      0.17685756E+06                     -0.21430913E+08                     -0.61626930E+06                      0.49996780E-02
    0.4000                     -0.22610314E+01                      0.13582453E+07                      0.11711800E+06                      0.31023152E+07                      0.26468289E+07                     -0.28619610E+08                     -0.46999135E+06                      0.50796490E-02
    0.4100                     -0.22197387E+01                      0.14316778E+07                      0.17100609E+06                      0.31083528E+07                      0.39458837E+07                     -0.30728284E+08                     -0.30821686E+06                      0.51351440E-02
    0.4200                     -0.21784458E+01                      0.13185641E+07                      0.14859767E+06                      0.31117876E+07                      0.30330229E+07                     -0.27447287E+08                     -0.13294120E+06                      0.51641900E-02
    0.4300                     -0.21371531E+01                      0.11329176E+07                      0.65726962E+05                      0.31118433E+07                      0.38141291E+06                     -0.22099471E+08                      0.33883049E+05                      0.51727940E-02
    0.4400                     -0.20958602E+01                      0.10221092E+07                     -0.21813507E+05                      0.31081705E+07                     -0.23705905E+07                     -0.18964735E+08                      0.19744267E+06                      0.51702860E-02
    0.4500                     -0.20545673E+01                      0.10751178E+07                     -0.59063827E+05                      0.31008701E+07                     -0.36171581E+07                     -0.20619727E+08                      0.34332214E+06                      0.51639230E-02
    0.4600                     -0.20132747E+01                      0.12597270E+07                     -0.29769129E+05                      0.30905263E+07                     -0.28854813E+07                     -0.26107238E+08                      0.46750126E+06                      0.51548420E-02
    0.4700                     -0.19719818E+01                      0.14476682E+07                      0.34657567E+05                      0.30781577E+07                     -0.10953414E+07                     -0.31674515E+08                      0.56731588E+06                      0.51391400E-02
    0.4800                     -0.19306891E+01                      0.15026658E+07                      0.79378451E+05                      0.30651541E+07                      0.14895218E+06                     -0.33340986E+08                      0.64726584E+06                      0.51124450E-02
    0.4900                     -0.18893962E+01                      0.13676918E+07                      0.70439579E+05                      0.30530363E+07                     -0.14735904E+06                     -0.29439805E+08                      0.70901559E+06                      0.50750540E-02
    0.5000                     -0.18481034E+01                      0.10961657E+07                      0.18883890E+05                      0.30432312E+07                     -0.16664262E+07                     -0.21523136E+08                      0.75300252E+06                      0.50342610E-02
    0.5100                     -0.18026249E+01                      0.82956740E+06                     -0.26577988E+05                      0.30365156E+07                     -0.29915959E+07                     -0.13728814E+08                      0.77939152E+06                      0.50024260E-02
    0.5200                     -0.17571466E+01                      0.69258287E+06                     -0.16023740E+05                      0.30337946E+07                     -0.26704968E+07                     -0.96679816E+07                      0.78641857E+06                      0.49911010E-02
    0.5300                     -0.17116681E+01                      0.72542738E+06                      0.65671582E+05                      0.30350813E+07                     -0.26425122E+06                     -0.10512399E+08                      0.77315534E+06                      0.50067080E-02
    0.5400                     -0.16661894E+01                      0.84918637E+06                      0.18820432E+06                      0.30398337E+07                      0.33434253E+07                     -0.13967041E+08                      0.74124686E+06                      0.50483200E-02
    0.5500                     -0.16207110E+01                      0.93089298E+06                      0.29664288E+06                      0.30470879E+07                      0.65537620E+07                     -0.16168682E+08                      0.69235651E+06                      0.51111200E-02
    0.5600                     -0.15752326E+01                      0.87791038E+06                      0.35023677E+06                      0.30555556E+07                      0.81835207E+07                     -0.14435818E+08                      0.62935432E+06                      0.51912310E-02
    0.5700                     -0.15297542E+01                      0.69235116E+06                      0.34827875E+06                      0.30638115E+07                      0.82170597E+07                     -0.88491306E+07                      0.55570771E+06                      0.52896180E-02
    0.5800                     -0.14842757E+01                      0.47574745E+06                      0.32678638E+06                      0.30704686E+07                      0.77080546E+07                     -0.23826312E+07                      0.47473522E+06                      0.54125720E-02
    0.5900                     -0.14387974E+01                      0.35465150E+06                      0.32930901E+06                      0.30743013E+07                      0.79330709E+07                      0.12667306E+07                      0.38682694E+06                      0.55678040E-02
    0.6000                     -0.13933187E+01                      0.40846855E+06                      0.37312118E+06                      0.30743881E+07                      0.93906346E+07                     -0.22024903E+06                      0.29348302E+06                      0.57599230E-02
    0.6100                     -0.13478402E+01                      0.60466191E+06                      0.43673721E+06                      0.30702678E+07                      0.11450442E+08                     -0.58950105E+07                      0.19382654E+06                      0.59870610E-02
    0.6200                     -0.13023617E+01                      0.83358532E+06                      0.47528767E+06                      0.30620588E+07                      0.12797320E+08                     -0.12561340E+08                      0.91465656E+05                      0.62424080E-02
    0.6300                     -0.12568834E+01                      0.97272869E+06                      0.45436919E+06                      0.30504485E+07                      0.12420392E+08                     -0.16647959E+08                     -0.10191458E+05                      0.65179550E-02
    0.6400                     -0.12114049E+01                      0.97221010E+06                      0.37441994E+06                      0.30366002E+07                      0.10324179E+08                     -0.16697533E+08                     -0.11068826E+06                      0.68095400E-02
    0.6500                     -0.11659265E+01                      0.88217038E+06                      0.27017389E+06                      0.30220177E+07                      0.75124718E+07                     -0.14163462E+08                     -0.20274269E+06                      0.71186320E-02
    0.6600                     -0.11204479E+01                      0.81987963E+06                      0.18506715E+06                      0.30082724E+07                      0.52425579E+07                     -0.12450633E+08                     -0.28432940E+06                      0.74505270E-02
    0.6700                     -0.10749693E+01                      0.87624221E+06                      0.14243189E+06                      0.29968111E+07                      0.41864097E+07                     -0.14189807E+08                     -0.34734002E+06                      0.78096930E-02
    0.6800                     -0.10294909E+01                      0.10622125E+07                      0.13029961E+06                      0.29887886E+07                      0.39893474E+07                     -0.19681034E+08                     -0.38319251E+06                      0.81962850E-02
    0.6900                     -0.98401254E+00                      0.12968355E+07                      0.11149884E+06                      0.29849287E+07                      0.35652924E+07                     -0.26549559E+08                     -0.38046134E+06                      0.86050870E-02
    0.7000                     -0.93853408E+00                      0.14661846E+07                      0.54172333E+05                      0.29854595E+07                      0.19876661E+07                     -0.31466717E+08                     -0.33005589E+06                      0.90285500E-02
    0.7100                     -0.89305568E+00                      0.14933073E+07                     -0.46461406E+05                      0.29900730E+07                     -0.87675379E+06                     -0.32187829E+08                     -0.22895592E+06                      0.94609240E-02
    0.7200                     -0.84757698E+00                      0.13892727E+07                     -0.16281882E+06                      0.29979644E+07                     -0.42144194E+07                     -0.29037690E+08                     -0.82990450E+05                      0.99014030E-02
    0.7300                     -0.80209851E+00                      0.12405060E+07                     -0.25831001E+06                      0.30078832E+07                     -0.69482624E+07                     -0.24538860E+08                      0.91992325E+05                      0.10353740E-01
    0.7400                     -0.75662017E+00                      0.11523292E+07                     -0.31015085E+06                      0.30182892E+07                     -0.84033558E+07                     -0.21765328E+08                      0.27656789E+06                      0.10823130E-01
    0.7500                     -0.71114171E+00                      0.11736716E+07                     -0.32666592E+06                      0.30275578E+07                     -0.88126277E+07                     -0.22148138E+08                      0.44760277E+06                      0.11312090E-01
    0.7600                     -0.66516048E+00                      0.12736353E+07                     -0.33731192E+06                      0.30340216E+07                     -0.90263898E+07                     -0.24814097E+08                      0.58699366E+06                      0.11818720E-01
    0.7700                     -0.61917925E+00                      0.13573769E+07                     -0.37118677E+06                      0.30367179E+07                     -0.98876209E+07                     -0.26993554E+08                      0.68239135E+06                      0.12337570E-01
    0.7800                     -0.57319802E+00                      0.13340971E+07                     -0.43242007E+06                      0.30349774E+07                     -0.11513985E+08                     -0.26055141E+08                      0.72671266E+06                      0.12863780E-01
    0.7900                     -0.52721649E+00                      0.11876525E+07                     -0.49901940E+06                      0.30288105E+07                     -0.13265716E+08                     -0.21544586E+08                      0.72490997E+06                      0.13396390E-01
    0.8000                     -0.48123527E+00                      0.96965926E+06                     -0.53613897E+06                      0.30186523E+07                     -0.14132608E+08                     -0.14976339E+08                      0.67621207E+06                      0.13939280E-01
    0.8100                     -0.43525407E+00                      0.78715061E+06                     -0.52149057E+06                      0.30054887E+07                     -0.13474448E+08                     -0.94749686E+07                      0.59883576E+06                      0.14499800E-01
    0.8200                     -0.38927281E+00                      0.71889871E+06                     -0.45954969E+06                      0.29906464E+07                     -0.11434310E+08                     -0.73352670E+07                      0.50210583E+06                      0.15084000E-01
    0.8300                     -0.34329158E+00                      0.77046534E+06                     -0.37601885E+06                      0.29756686E+07                     -0.87751775E+07                     -0.87139332E+07                      0.40432896E+06                      0.15694170E-01
    0.8400                     -0.29731035E+00                      0.86913967E+06                     -0.29981627E+06                      0.29621269E+07                     -0.63535373E+07                     -0.11484929E+08                      0.31698484E+06                      0.16328180E-01
    0.8500                     -0.25132886E+00                      0.92485315E+06                     -0.24236649E+06                      0.29514389E+07                     -0.45142818E+07                     -0.13017955E+08                      0.24952340E+06                      0.16982220E-01
    0.8600                     -0.20534766E+00                      0.87690906E+06                     -0.19331791E+06                      0.29446807E+07                     -0.29652087E+07                     -0.11537227E+08                      0.19978977E+06                      0.17653940E-01
    0.8700                     -0.15936643E+00                      0.75330199E+06                     -0.13037217E+06                      0.29423725E+07                     -0.10626391E+07                     -0.78521709E+07                      0.15975710E+06                      0.18345200E-01
    0.8800                     -0.11338514E+00                      0.62545756E+06                     -0.41138812E+05                      0.29445157E+07                      0.15511190E+07                     -0.40330894E+07                      0.11549062E+06                      0.19060430E-01
    0.8900                     -0.67403913E-01                      0.59227488E+06                      0.65239503E+05                      0.29504769E+07                      0.46099074E+07                     -0.29521150E+07                      0.53441171E+05                      0.19804580E-01
    0.9000                     -0.21422684E-01                      0.67976073E+06                      0.16215257E+06                      0.29591644E+07                      0.73422305E+07                     -0.53557457E+07                     -0.37242801E+05                      0.20578200E-01
    0.9100                      0.24558783E-01                      0.84745661E+06                      0.22066351E+06                      0.29691836E+07                      0.89119569E+07                     -0.10057410E+08                     -0.15686562E+06                      0.21377390E-01
    0.9200                      0.70540011E-01                      0.10100547E+07                      0.22746316E+06                      0.29789867E+07                      0.89401515E+07                     -0.14571169E+08                     -0.30101706E+06                      0.22194250E-01
    0.9300                      0.11652124E+00                      0.10952502E+07                      0.19154332E+06                      0.29870735E+07                      0.76989329E+07                     -0.16796652E+08                     -0.45449990E+06                      0.23020550E-01
    0.9400                      0.16250247E+00                      0.10833273E+07                      0.13533574E+06                      0.29921941E+07                      0.58521366E+07                     -0.16169346E+08                     -0.60011785E+06                      0.23850610E-01
    0.9500                      0.20848370E+00                      0.10220529E+07                      0.77856177E+05                      0.29934469E+07                      0.39629248E+07                     -0.14092323E+08                     -0.72006013E+06                      0.24682310E-01
    0.9600                      0.25446492E+00                      0.99280333E+06                      0.22528718E+05                      0.29903973E+07                      0.21380371E+07                     -0.12947256E+08                     -0.79971412E+06                      0.25515360E-01
    0.9700                      0.30044639E+00                      0.10518792E+07                     -0.41832359E+05                      0.29831571E+07                      0.55936186E+05                     -0.14383070E+08                     -0.83207453E+06                      0.26348320E-01
    0.9800                      0.34642768E+00                      0.11920824E+07                     -0.12719453E+06                      0.29724014E+07                     -0.26300121E+07                     -0.18197001E+08                     -0.81789438E+06                      0.27176580E-01
    0.9900                      0.39240885E+00                      0.13472264E+07                     -0.23252981E+06                      0.29592665E+07                     -0.58895352E+07                     -0.22467166E+08                     -0.76656401E+06                      0.27992640E-01
    1.0000                      0.43839020E+00                      0.14412597E+07                     -0.33994348E+06                      0.29451922E+07                     -0.92026039E+07                     -0.24984709E+08                     -0.69231670E+06                      0.28788620E-01
    1.0100                      0.48120794E+00                      0.14386603E+07                     -0.42252713E+06                      0.29315367E+07                     -0.11787680E+08                     -0.24747576E+08                     -0.61212751E+06                      0.29559220E-01
    1.0200                      0.52402568E+00                      0.13578518E+07                     -0.45950761E+06                      0.29198972E+07                     -0.13042033E+08                     -0.22267478E+08                     -0.53954717E+06                      0.30303150E-01
    1.0300                      0.56684345E+00                      0.12709167E+07                     -0.44665412E+06                      0.29113880E+07                     -0.12844576E+08                     -0.19641985E+08                     -0.48199049E+06                      0.31022890E-01
    1.0400                      0.60966122E+00                      0.12424017E+07                     -0.39722486E+06                      0.29066930E+07                     -0.11582912E+08                     -0.18743101E+08                     -0.43802584E+06                      0.31721290E-01
    1.0500                      0.65247893E+00                      0.12976420E+07                     -0.32948988E+06                      0.29060501E+07                     -0.97889482E+07                     -0.20297788E+08                     -0.39916294E+06                      0.32399640E-01
    1.0600                      0.69529670E+00                      0.13933991E+07                     -0.25504508E+06                      0.29092145E+07                     -0.77985499E+07                     -0.23033269E+08                     -0.35187846E+06                      0.33055980E-01
    1.0700                      0.73811495E+00                      0.14610957E+07                     -0.17229141E+06                      0.29154844E+07                     -0.55617266E+07                     -0.24940986E+08                     -0.28414398E+06                      0.33686970E-01
    1.0800                      0.78093272E+00                      0.14429591E+07                     -0.72711870E+05                      0.29237852E+07                     -0.28260497E+07                     -0.24329360E+08                     -0.18785392E+06                      0.34289970E-01
    1.0900                      0.82375050E+00                      0.13436618E+07                      0.48589739E+05                      0.29327808E+07                      0.55588265E+06                     -0.21330025E+08                     -0.63979562E+05                      0.34865530E-01
    1.1000                      0.86656821E+00                      0.12102278E+07                      0.18341575E+06                      0.29410254E+07                      0.43496429E+07                     -0.17308596E+08                      0.75439255E+05                      0.35416880E-01
    1.1100                      0.90938598E+00                      0.11148785E+07                      0.31314781E+06                      0.29471940E+07                      0.80166782E+07                     -0.14366874E+08                      0.21217743E+06                      0.35948560E-01
    1.1200                      0.95220375E+00                      0.10939408E+07                      0.41661479E+06                      0.29502565E+07                      0.10942418E+08                     -0.13561989E+08                      0.32196532E+06                      0.36463150E-01
    1.1300                      0.99502146E+00                      0.11376258E+07                      0.48319030E+06                      0.29496257E+07                      0.12817690E+08                     -0.14611908E+08                      0.38401392E+06                      0.36960240E-01
    1.1400                      0.10378392E+01                      0.11890587E+07                      0.51585860E+06                      0.29452287E+07                      0.13727587E+08                     -0.15867016E+08                      0.38491171E+06                      0.37436390E-01
    1.1500                      0.10806570E+01                      0.11944407E+07                      0.52806741E+06                      0.29374644E+07                      0.14060301E+08                     -0.15773065E+08                      0.32026064E+06                      0.37887660E-01
    1.1600                      0.11234747E+01                      0.11300994E+07                      0.53226223E+06                      0.29269483E+07                      0.14173246E+08                     -0.13655985E+08                      0.19928669E+06                      0.38311530E-01
    1.1700                      0.11662924E+01                      0.10210544E+07                      0.52926448E+06                      0.29152227E+07                      0.14083738E+08                     -0.10260085E+08                      0.60640986E+05                      0.38708390E-01
    1.1800                      0.12091103E+01                      0.92782925E+06                      0.51224331E+06                      0.29032668E+07                      0.13586413E+08                     -0.73622496E+07                     -0.99043354E+05                      0.39080610E-01
    1.1900                      0.12519286E+01                      0.89944421E+06                      0.47248069E+06                      0.28923691E+07                      0.12421447E+08                     -0.64005886E+07                     -0.22771168E+06                      0.39430340E-01
    1.2000                      0.12947463E+01                      0.94853789E+06                      0.40734753E+06                      0.28836387E+07                      0.10507570E+08                     -0.77495930E+07                     -0.32423103E+06                      0.39757920E-01
    1.2100                      0.13375640E+01                      0.10328662E+07                      0.32817106E+06                      0.28779411E+07                      0.81721664E+07                     -0.10180266E+08                     -0.37240431E+06                      0.40061190E-01
    1.2200                      0.13803818E+01                      0.11007660E+07                      0.25088413E+06                      0.28757141E+07                      0.58788006E+07                     -0.12187927E+08                     -0.37469545E+06                      0.40337370E-01
    1.2300                      0.14231995E+01                      0.11103981E+07                      0.18958165E+06                      0.28769486E+07                      0.40397964E+07                     -0.12550244E+08                     -0.33934109E+06                      0.40584560E-01
    1.2400                      0.14660172E+01                      0.10693201E+07                      0.14533877E+06                      0.28811453E+07                      0.26902695E+07                     -0.11480472E+08                     -0.28101473E+06                      0.40803940E-01
    1.2500                      0.15088351E+01                      0.10180140E+07                      0.11008422E+06                      0.28874596E+07                      0.16010790E+07                     -0.10146233E+08                     -0.21554804E+06                      0.40998950E-01
    1.2600                      0.15475348E+01                      0.10127370E+07                      0.72550408E+05                      0.28945607E+07                      0.45183457E+06                     -0.10207722E+08                     -0.16170469E+06                      0.41173970E-01
    1.2700                      0.15862345E+01                      0.10761604E+07                      0.26829156E+05                      0.29014513E+07                     -0.92128129E+06                     -0.12271603E+08                     -0.11847817E+06                      0.41331600E-01
    1.2800                      0.16249342E+01                      0.11907191E+07                     -0.23125905E+05                      0.29070267E+07                     -0.23949463E+07                     -0.15808924E+08                     -0.96832966E+05                      0.41472030E-01
    1.2900                      0.16636339E+01                      0.13087404E+07                     -0.66540606E+05                      0.29104092E+07                     -0.36483807E+07                     -0.19417038E+08                     -0.84394748E+05                      0.41593010E-01
    1.3000                      0.17023336E+01                      0.13824437E+07                     -0.95549276E+05                      0.29110068E+07                     -0.44477272E+07                     -0.21694629E+08                     -0.74452105E+05                      0.41691810E-01
    1.3100                      0.17410333E+01                      0.13963498E+07                     -0.11051470E+06                      0.29086105E+07                     -0.48013315E+07                     -0.22186633E+08                     -0.51907670E+05                      0.41766920E-01
    1.3200                      0.17797334E+01                      0.13731895E+07                     -0.12088643E+06                      0.29033620E+07                     -0.49848853E+07                     -0.21555278E+08                     -0.62863130E+04                      0.41818590E-01
    1.3300                      0.18184332E+01                      0.13580677E+07                     -0.13664446E+06                      0.28957931E+07                     -0.52919117E+07                     -0.21118202E+08                      0.71141324E+05                      0.41848100E-01
    1.3400                      0.18571329E+01                      0.13832074E+07                     -0.16085184E+06                      0.28867259E+07                     -0.58164329E+07                     -0.21820416E+08                      0.17896021E+06                      0.41856030E-01
    1.3500                      0.18958325E+01                      0.14473268E+07                     -0.18691631E+06                      0.28771848E+07                     -0.63732633E+07                     -0.23633832E+08                      0.31118723E+06                      0.41841140E-01
    1.3600                      0.19345323E+01                      0.15138340E+07                     -0.20294497E+06                      0.28682721E+07                     -0.66244666E+07                     -0.25504510E+08                      0.45480093E+06                      0.41800450E-01
    1.3700                      0.19732320E+01                      0.15342471E+07                     -0.19864098E+06                      0.28609765E+07                     -0.62792782E+07                     -0.26034075E+08                      0.59716347E+06                      0.41730810E-01
    1.3800                      0.20119317E+01                      0.14835485E+07                     -0.17280977E+06                      0.28560204E+07                     -0.53118603E+07                     -0.24508853E+08                      0.72547972E+06                      0.41630900E-01
    1.3900                      0.20506315E+01                      0.13730167E+07                     -0.13487502E+06                      0.28537706E+07                     -0.40052661E+07                     -0.21271144E+08                      0.83204353E+06                      0.41502310E-01
    1.4000                      0.20893312E+01                      0.12407894E+07                     -0.95059409E+05                      0.28542268E+07                     -0.26635288E+07                     -0.17441133E+08                      0.91186628E+06                      0.41349480E-01
    1.4100                      0.21280308E+01                      0.11332672E+07                     -0.59842895E+05                      0.28570213E+07                     -0.14795225E+07                     -0.14375459E+08                      0.96125898E+06                      0.41178240E-01
    1.4200                      0.21667304E+01                      0.10741597E+07                     -0.26476639E+05                      0.28614789E+07                     -0.37520031E+06                     -0.12765199E+08                      0.97938080E+06                      0.40993990E-01
    1.4300                      0.22054303E+01                      0.10462154E+07                      0.11483629E+05                      0.28667611E+07                      0.83669118E+06                     -0.12103053E+08                      0.96558477E+06                      0.40800800E-01
    1.4400                      0.22441304E+01                      0.10133965E+07                      0.59889585E+05                      0.28719272E+07                      0.23281920E+07                     -0.11332423E+08                      0.91910206E+06                      0.40602080E-01
    1.4500                      0.22828300E+01                      0.93682656E+06                      0.11444457E+06                      0.28760518E+07                      0.39764614E+07                     -0.93106187E+07                      0.84008117E+06                      0.40401580E-01
    1.4600                      0.23215299E+01                      0.82218047E+06                      0.16450626E+06                      0.28783063E+07                      0.54751756E+07                     -0.61933701E+07                      0.72825582E+06                      0.40205120E-01
    1.4700                      0.23602295E+01                      0.70074951E+06                      0.19617404E+06                      0.28781509E+07                      0.64236107E+07                     -0.28804878E+07                      0.58696571E+06                      0.40019710E-01
    1.4800                      0.23989291E+01                      0.62434980E+06                      0.20267676E+06                      0.28753630E+07                      0.66292177E+07                     -0.86970062E+06                      0.41893476E+06                      0.39852920E-01
    1.4900                      0.24376290E+01                      0.61398644E+06                      0.18634563E+06                      0.28701322E+07                      0.61640949E+07                     -0.75939908E+06                      0.23056883E+06                      0.39710130E-01
    1.5000                      0.24763286E+01                      0.66554760E+06                      0.15776753E+06                      0.28630218E+07                      0.53401308E+07                     -0.24194333E+07                      0.29111764E+05                      0.39594150E-01
    1.5100                      0.25061595E+01                      0.75324932E+06                      0.12602899E+06                      0.28547012E+07                      0.44244424E+07                     -0.51303246E+07                     -0.17715939E+06                      0.39504600E-01
    1.5200                      0.25359905E+01                      0.81040590E+06                      0.93555063E+05                      0.28463410E+07                      0.34883734E+07                     -0.69073121E+07                     -0.37723920E+06                      0.39438950E-01
    1.5300                      0.25658214E+01                      0.84791325E+06                      0.54741437E+05                      0.28388156E+07                      0.23690750E+07                     -0.80754559E+07                     -0.56504751E+06                      0.39396040E-01
    1.5400                      0.25956526E+01                      0.84560559E+06                      0.36146753E+04                      0.28329936E+07                      0.89257198E+06                     -0.80485681E+07                     -0.73136681E+06                      0.39373470E-01
    1.5500                      0.26254835E+01                      0.86208513E+06                     -0.61407886E+05                      0.28293977E+07                     -0.98685642E+06                     -0.85431631E+07                     -0.87415139E+06                      0.39371850E-01
    1.5600                      0.26553144E+01                      0.91554380E+06                     -0.13266219E+06                      0.28283012E+07                     -0.30457461E+07                     -0.10096243E+08                     -0.99027736E+06                      0.39389070E-01
    1.5700                      0.26851459E+01                      0.10214029E+07                     -0.19704749E+06                      0.28296367E+07                     -0.49020996E+07                     -0.13165348E+08                     -0.10818117E+07                      0.39422720E-01
    1.5800                      0.27149768E+01                      0.11475890E+07                     -0.24253108E+06                      0.28330259E+07                     -0.62053526E+07                     -0.16824174E+08                     -0.11479205E+07                      0.39467520E-01
    1.5900                      0.27448077E+01                      0.12511003E+07                     -0.26598090E+06                      0.28377961E+07                     -0.68646038E+07                     -0.19828106E+08                     -0.11880085E+07                      0.39517850E-01
    1.6000                      0.27746387E+01                      0.13005697E+07                     -0.27225988E+06                      0.28430511E+07                     -0.70215183E+07                     -0.21271542E+08                     -0.11981458E+07                      0.39568870E-01
    1.6100                      0.28044696E+01                      0.12913894E+07                     -0.27027157E+06                      0.28477895E+07                     -0.69351488E+07                     -0.21025749E+08                     -0.11752502E+07                      0.39618080E-01
    1.6200                      0.28343005E+01                      0.12553438E+07                     -0.26465829E+06                      0.28510439E+07                     -0.67399557E+07                     -0.20019567E+08                     -0.11144152E+07                      0.39665650E-01
    1.6300                      0.28641317E+01                      0.12339655E+07                     -0.25199493E+06                      0.28520393E+07                     -0.63351497E+07                     -0.19462381E+08                     -0.10139119E+07                      0.39712990E-01
    1.6400                      0.28939626E+01                      0.12446151E+07                     -0.22616468E+06                      0.28503369E+07                     -0.55429550E+07                     -0.19853959E+08                     -0.87366238E+06                      0.39761430E-01
    1.6500                      0.29237936E+01                      0.12778138E+07                     -0.17992182E+06                      0.28458624E+07                     -0.41532011E+07                     -0.20910564E+08                     -0.69873085E+06                      0.39811380E-01
    1.6600                      0.29536245E+01                      0.12935070E+07                     -0.11432584E+06                      0.28389539E+07                     -0.21986037E+07                     -0.21455680E+08                     -0.49292364E+06                      0.39862410E-01
    1.6700                      0.29834554E+01                      0.12641310E+07                     -0.38028765E+05                      0.28302486E+07                      0.66315457E+05                     -0.20678704E+08                     -0.26585415E+06                      0.39914930E-01
    1.6800                      0.30132866E+01                      0.11775140E+07                      0.35599046E+05                      0.28206362E+07                      0.22491797E+07                     -0.18217000E+08                     -0.25749579E+05                      0.39970720E-01
    1.6900                      0.30431178E+01                      0.10654230E+07                      0.98643527E+05                      0.28110855E+07                      0.41174451E+07                     -0.14990424E+08                      0.21667587E+06                      0.40033890E-01
    1.7000                      0.30729487E+01                      0.96688752E+06                      0.14845612E+06                      0.28026134E+07                      0.55916299E+07                     -0.12130476E+08                      0.45566131E+06                      0.40108920E-01
    1.7100                      0.31027796E+01                      0.90990159E+06                      0.19049499E+06                      0.27961577E+07                      0.68288461E+07                     -0.10447731E+08                      0.68574774E+06                      0.40199780E-01
    1.7200                      0.31326108E+01                      0.88908204E+06                      0.22937964E+06                      0.27924503E+07                      0.79618660E+07                     -0.97818041E+07                      0.90447514E+06                      0.40308340E-01
    1.7300                      0.31624417E+01                      0.87908088E+06                      0.26506667E+06                      0.27918887E+07                      0.89879852E+07                     -0.93945996E+07                      0.11120936E+07                      0.40434710E-01
    1.7400                      0.31922727E+01                      0.84982261E+06                      0.29109017E+06                      0.27944529E+07                      0.97183306E+07                     -0.84145120E+07                      0.13056594E+07                      0.40577990E-01
    1.7500                      0.32221036E+01                      0.78889881E+06                      0.29833669E+06                      0.27996866E+07                      0.98881465E+07                     -0.64875968E+07                      0.14791590E+07                      0.40737620E-01
    1.7600                      0.32413082E+01                      0.71915407E+06                      0.28102085E+06                      0.28066266E+07                      0.93308661E+07                     -0.43286706E+07                      0.16225155E+07                      0.40913950E-01
    1.7700                      0.32605128E+01                      0.66311878E+06                      0.24140920E+06                      0.28143198E+07                      0.81157162E+07                     -0.25642130E+07                      0.17227017E+07                      0.41107180E-01
    1.7800                      0.32797174E+01                      0.64101093E+06                      0.18898236E+06                      0.28215940E+07                      0.65227538E+07                     -0.17899323E+07                      0.17647071E+07                      0.41317380E-01
    1.7900                      0.32989218E+01                      0.66397693E+06                      0.13308840E+06                      0.28272987E+07                      0.48280142E+07                     -0.23378593E+07                      0.17375153E+07                      0.41543000E-01
    1.8000                      0.33181264E+01                      0.71735657E+06                      0.79409323E+05                      0.28304780E+07                      0.32004088E+07                     -0.37862578E+07                      0.16374616E+07                      0.41780790E-01
    1.8100                      0.33373311E+01                      0.77584969E+06                      0.26594840E+05                      0.28304926E+07                      0.16034542E+07                     -0.54024245E+07                      0.14677815E+07                      0.42026610E-01
    1.8200                      0.33565359E+01                      0.82160958E+06                     -0.30029020E+05                      0.28270658E+07                     -0.96781606E+05                     -0.66703617E+07                      0.12404946E+07                      0.42276220E-01
    1.8300                      0.33757405E+01                      0.84492813E+06                     -0.92661155E+05                      0.28203284E+07                     -0.19626473E+07                     -0.73073976E+07                      0.97200804E+06                      0.42526080E-01
    1.8400                      0.33949451E+01                      0.86281015E+06                     -0.15829949E+06                      0.28108307E+07                     -0.39060349E+07                     -0.78077790E+07                      0.68057780E+06                      0.42773970E-01
    1.8500                      0.34141495E+01                      0.89472627E+06                     -0.21714646E+06                      0.27994376E+07                     -0.56417008E+07                     -0.87339132E+07                      0.38124431E+06                      0.43017950E-01
    1.8600                      0.34333541E+01                      0.96080468E+06                     -0.26050857E+06                      0.27872688E+07                     -0.69178187E+07                     -0.10666072E+08                      0.88965492E+05                      0.43255970E-01
    1.8700                      0.34525588E+01                      0.10519781E+07                     -0.28314127E+06                      0.27755871E+07                     -0.75839349E+07                     -0.13331583E+08                     -0.19025517E+06                      0.43484630E-01
    1.8800                      0.34717634E+01                      0.11479617E+07                     -0.28852654E+06                      0.27656041E+07                     -0.77455348E+07                     -0.16131987E+08                     -0.45262070E+06                      0.43699870E-01
    1.8900                      0.34909680E+01                      0.12198990E+07                     -0.28215106E+06                      0.27583280E+07                     -0.75665137E+07                     -0.18219813E+08                     -0.69879277E+06                      0.43897240E-01
    1.9000                      0.35101726E+01                      0.12573748E+07                     -0.27086564E+06                      0.27544285E+07                     -0.72499844E+07                     -0.19287750E+08                     -0.93115573E+06                      0.44073250E-01
    1.9100                      0.35293770E+01                      0.12633720E+07                     -0.25561720E+06                      0.27541535E+07                     -0.68266221E+07                     -0.19419908E+08                     -0.11528697E+07                      0.44225500E-01
    1.9200                      0.35485816E+01                      0.12580237E+07                     -0.23393120E+06                      0.27573008E+07                     -0.62268448E+07                     -0.19201211E+08                     -0.13617383E+07                      0.44352810E-01
    1.9300                      0.35677862E+01                      0.12605158E+07                     -0.20147941E+06                      0.27632956E+07                     -0.53261909E+07                     -0.19189809E+08                     -0.15531120E+07                      0.44454230E-01
    1.9400                      0.35869911E+01                      0.12787441E+07                     -0.15732205E+06                      0.27712352E+07                     -0.40980290E+07                     -0.19616403E+08                     -0.17171188E+07                      0.44528400E-01
    1.9500                      0.36061957E+01                      0.13058190E+07                     -0.10703864E+06                      0.27799863E+07                     -0.27052800E+07                     -0.20284025E+08                     -0.18415501E+07                      0.44573160E-01
    1.9600                      0.36254003E+01                      0.13194729E+07                     -0.58885073E+05                      0.27883511E+07                     -0.13880088E+07                     -0.20549687E+08                     -0.19135696E+07                      0.44585860E-01
    1.9700                      0.36446047E+01                      0.12993272E+07                     -0.20723485E+05                      0.27951915E+07                     -0.37403540E+06                     -0.19827046E+08                     -0.19241240E+07                      0.44564390E-01
    1.9800                      0.36638093E+01                      0.12450034E+07                      0.46948581E+04                      0.27995522E+07                      0.25834387E+06                     -0.18114073E+08                     -0.18691558E+07                      0.44507920E-01
    1.9900                      0.36830139E+01                      0.11700594E+07                      0.20603589E+05                      0.28007790E+07                      0.60569681E+06                     -0.15813727E+08                     -0.17516581E+07                      0.44416960E-01
    2.0000                      0.37022185E+01                      0.11005822E+07                      0.32970311E+05                      0.27985916E+07                      0.84416806E+06                     -0.13692466E+08                     -0.15806011E+07                      0.44293170E-01
    2.0100                      0.37151599E+01                      0.10604117E+07                      0.45792291E+05                      0.27931636E+07                      0.10917301E+07                     -0.12498164E+08                     -0.13701529E+07                      0.44138140E-01
    2.0200                      0.37281013E+01                      0.10425456E+07                      0.59641660E+05                      0.27850107E+07                      0.13668403E+07                     -0.11979572E+08                     -0.11347572E+07                      0.43952420E-01
    2.0300                      0.37410426E+01                      0.10386558E+07                      0.71117691E+05                      0.27749904E+07                      0.15716172E+07                     -0.11895983E+08                     -0.88863510E+06                      0.43736400E-01
    2.0400                      0.37539840E+01                      0.10251773E+07                      0.76278548E+05                      0.27641816E+07                      0.15919311E+07                     -0.11561117E+08                     -0.63887454E+06                      0.43489600E-01
    2.0500                      0.37669253E+01                      0.99047813E+06                      0.74261897E+05                      0.27537123E+07                      0.14034693E+07                     -0.10635439E+08                     -0.38721925E+06                      0.43212690E-01
    2.0600                      0.37798667E+01                      0.94139794E+06                      0.69014054E+05                      0.27446071E+07                      0.11218752E+07                     -0.93164534E+07                     -0.13111675E+06                      0.42907210E-01
    2.0700                      0.37928081E+01                      0.89681722E+06                      0.66322908E+05                      0.27376983E+07                      0.91767263E+06                     -0.81500155E+07                      0.13531149E+06                      0.42575550E-01
    2.0800                      0.38057494E+01                      0.87504214E+06                      0.70829183E+05                      0.27335406E+07                      0.92752985E+06                     -0.76634387E+07                      0.41675917E+06                      0.42220190E-01
    2.0900                      0.38186908E+01                      0.88110678E+06                      0.81800145E+05                      0.27323433E+07                      0.11280672E+07                     -0.79951792E+07                      0.71484060E+06                      0.41842910E-01
    2.1000                      0.38316321E+01                      0.90644313E+06                      0.94769774E+05                      0.27339538E+07                      0.13913467E+07                     -0.88904061E+07                      0.10250958E+07                      0.41444500E-01
    2.1100                      0.38445735E+01                      0.93290694E+06                      0.10444603E+06                      0.27378939E+07                      0.15649727E+07                     -0.98164813E+07                      0.13365390E+07                      0.41024970E-01
    2.1200                      0.38575149E+01                      0.95226070E+06                      0.10793373E+06                      0.27433989E+07                      0.15660510E+07                     -0.10532072E+08                      0.16344656E+07                      0.40584240E-01
    2.1300                      0.38704567E+01                      0.95695305E+06                      0.10692106E+06                      0.27495569E+07                      0.14456380E+07                     -0.10816445E+08                      0.18979560E+07                      0.40122340E-01
    2.1400                      0.38833981E+01                      0.95230715E+06                      0.10562256E+06                      0.27554031E+07                      0.13284986E+07                     -0.10824912E+08                      0.21048500E+07                      0.39640050E-01
    2.1500                      0.38963394E+01                      0.95457506E+06                      0.10728066E+06                      0.27600309E+07                      0.13109084E+07                     -0.11033015E+08                      0.22345713E+07                      0.39138320E-01
    2.1600                      0.39092808E+01                      0.97559857E+06                      0.11203747E+06                      0.27627082E+07                      0.13984568E+07                     -0.11788086E+08                      0.22727964E+07                      0.38617820E-01
    2.1700                      0.39222221E+01                      0.10150921E+07                      0.11664751E+06                      0.27630164E+07                      0.14976496E+07                     -0.13084402E+08                      0.22161815E+07                      0.38078590E-01
    2.1800                      0.39351635E+01                      0.10588007E+07                      0.11676542E+06                      0.27608543E+07                      0.14823656E+07                     -0.14509733E+08                      0.20685502E+07                      0.37519980E-01
    2.1900                      0.39481049E+01                      0.10863889E+07                      0.11097501E+06                      0.27564478E+07                      0.13115256E+07                     -0.15474647E+08                      0.18453009E+07                      0.36941310E-01
    2.2000                      0.39610462E+01                      0.10865140E+07                      0.10140194E+06                      0.27502934E+07                      0.10467586E+07                     -0.15651699E+08                      0.15641415E+07                      0.36342660E-01
    2.2100                      0.39739876E+01                      0.10638522E+07                      0.92999922E+05                      0.27430638E+07                      0.83170072E+06                     -0.15179387E+08                      0.12445834E+07                      0.35725290E-01
    2.2200                      0.39869289E+01                      0.10277264E+07                      0.90478506E+05                      0.27355703E+07                      0.80273804E+06                     -0.14328428E+08                      0.90327983E+06                      0.35091540E-01
    2.2300                      0.39998703E+01                      0.99818147E+06                      0.95030253E+05                      0.27286089E+07                      0.99212778E+06                     -0.13678374E+08                      0.55270230E+06                      0.34444600E-01
    2.2400                      0.40128117E+01                      0.98859293E+06                      0.10482285E+06                      0.27228672E+07                      0.13456501E+07                     -0.13613690E+08                      0.19962218E+06                      0.33787310E-01
    2.2500                      0.40257530E+01                      0.99975049E+06                      0.11681531E+06                      0.27188238E+07                      0.17735835E+07                     -0.14154975E+08                     -0.15251637E+06                      0.33121890E-01
    2.2600                      0.40314722E+01                      0.10178857E+07                      0.12940772E+06                      0.27169627E+07                      0.22274507E+07                     -0.14947710E+08                     -0.50274238E+06                      0.32449760E-01
    2.2700                      0.40371914E+01                      0.10131698E+07                      0.14332858E+06                      0.27170416E+07                      0.27276123E+07                     -0.15065976E+08                     -0.84618859E+06                      0.31771810E-01
    2.2800                      0.40429106E+01                      0.98482602E+06                      0.16019094E+06                      0.27187520E+07                      0.33205020E+07                     -0.14486146E+08                     -0.11754369E+07                      0.31090070E-01
    2.2900                      0.40486293E+01                      0.93657788E+06                      0.18181353E+06                      0.27215793E+07                      0.40591145E+07                     -0.13314842E+08                     -0.14822989E+07                      0.30406690E-01
    2.3000                      0.40543485E+01                      0.89111444E+06                      0.20607744E+06                      0.27248682E+07                      0.48819103E+07                     -0.12212263E+08                     -0.17541549E+07                      0.29725030E-01
    2.3100                      0.40600677E+01                      0.85717356E+06                      0.22893534E+06                      0.27279251E+07                      0.56714351E+07                     -0.11430994E+08                     -0.19831248E+07                      0.29047860E-01
    2.3200                      0.40657868E+01                      0.84030975E+06                      0.24457619E+06                      0.27301216E+07                      0.62589107E+07                     -0.11132432E+08                     -0.21589082E+07                      0.28377640E-01
    2.3300                      0.40715060E+01                      0.82877099E+06                      0.25017224E+06                      0.27309607E+07                      0.65626629E+07                     -0.10974961E+08                     -0.22760343E+07                      0.27715730E-01
    2.3400                      0.40772252E+01                      0.81287135E+06                      0.24395127E+06                      0.27301565E+07                      0.65312932E+07                     -0.10680117E+08                     -0.23300697E+07                      0.27063280E-01
    2.3500                      0.40829444E+01                      0.77862073E+06                      0.22904157E+06                      0.27276909E+07                      0.62561724E+07                     -0.98442259E+07                     -0.23197959E+07                      0.26421280E-01
    2.3600                      0.40886636E+01                      0.73195666E+06                      0.20706997E+06                      0.27237050E+07                      0.57843405E+07                     -0.86462270E+07                     -0.22473985E+07                      0.25791540E-01
    2.3700                      0.40943823E+01                      0.68675614E+06                      0.17978677E+06                      0.27185921E+07                      0.51661111E+07                     -0.74961757E+07                     -0.21137159E+07                      0.25176100E-01
    2.3800                      0.41001019E+01                      0.64999639E+06                      0.14522104E+06                      0.27129478E+07                      0.43425954E+07                     -0.66000083E+07                     -0.19231558E+07                      0.24577090E-01
    2.3900                      0.41058207E+01                      0.63266230E+06                      0.10280810E+06                      0.27073985E+07                      0.32958357E+07                     -0.62808136E+07                     -0.16799632E+07                      0.23996540E-01
    2.4000                      0.41115398E+01                      0.62875809E+06                      0.51896645E+05                      0.27026123E+07                      0.20048448E+07                     -0.63647288E+07                     -0.13874404E+07                      0.23435550E-01
    2.4100                      0.41172590E+01                      0.62836529E+06                     -0.48139485E+04                      0.26991193E+07                      0.54610023E+06                     -0.65621290E+07                     -0.10511762E+07                      0.22895060E-01
    2.4200                      0.41229782E+01                      0.62363906E+06                     -0.63572948E+05                      0.26972479E+07                     -0.97449930E+06                     -0.66447070E+07                     -0.67609368E+06                      0.22375850E-01
    2.4300                      0.41286974E+01                      0.61655036E+06                     -0.11896922E+06                      0.26970988E+07                     -0.24017709E+07                     -0.66695466E+07                     -0.26819451E+06                      0.21878950E-01
    2.4400                      0.41344166E+01                      0.61230968E+06                     -0.16903670E+06                      0.26985323E+07                     -0.36805992E+07                     -0.67831575E+07                      0.16444399E+06                      0.21405540E-01
    2.4500                      0.41401358E+01                      0.62149746E+06                     -0.21289332E+06                      0.27011869E+07                     -0.47875712E+07                     -0.72880785E+07                      0.61286078E+06                      0.20956810E-01
    2.4600                      0.41458549E+01                      0.64158194E+06                     -0.25173856E+06                      0.27045516E+07                     -0.57606539E+07                     -0.81027125E+07                      0.10634415E+07                      0.20533330E-01
    2.4700                      0.41515737E+01                      0.67732683E+06                     -0.28571944E+06                      0.27079371E+07                     -0.66061607E+07                     -0.93609800E+07                      0.14999564E+07                      0.20135350E-01
    2.4800                      0.41572928E+01                      0.72100536E+06                     -0.31443183E+06                      0.27106450E+07                     -0.73135563E+07                     -0.10833161E+08                      0.19025341E+07                      0.19762070E-01
    2.4900                      0.41630120E+01                      0.75989226E+06                     -0.33522704E+06                      0.27120610E+07                     -0.78069714E+07                     -0.12143060E+08                      0.22473305E+07                      0.19412410E-01
    2.5000                      0.41687312E+01                      0.78772925E+06                     -0.34600140E+06                      0.27117213E+07                     -0.80260825E+07                     -0.13105152E+08                      0.25153278E+07                      0.19085220E-01
    2.5100                      0.41636686E+01                      0.80719712E+06                     -0.34527877E+06                      0.27097167E+07                     -0.79281389E+07                     -0.13831162E+08                      0.26904635E+07                      0.18779380E-01
    2.5200                      0.41586056E+01                      0.82168312E+06                     -0.33534649E+06                      0.27058520E+07                     -0.75800939E+07                     -0.14384478E+08                      0.27678490E+07                      0.18493730E-01
    2.5300                      0.41535430E+01                      0.83938688E+06                     -0.31930946E+06                      0.27004253E+07                     -0.70720253E+07                     -0.15005626E+08                      0.27453232E+07                      0.18227180E-01
    2.5400                      0.41484799E+01                      0.85765224E+06                     -0.30012520E+06                      0.26940160E+07                     -0.64893896E+07                     -0.15619359E+08                      0.26325279E+07                      0.17978060E-01
    2.5500                      0.41434174E+01                      0.87303931E+06                     -0.27951821E+06                      0.26873147E+07                     -0.58815459E+07                     -0.16129818E+08                      0.24400503E+07                      0.17744650E-01
    2.5600                      0.41383548E+01                      0.87018921E+06                     -0.25744387E+06                      0.26810958E+07                     -0.52462708E+07                     -0.16093881E+08                      0.21811136E+07                      0.17525010E-01
    2.5700                      0.41332917E+01                      0.84582461E+06                     -0.23328918E+06                      0.26760639E+07                     -0.45647552E+07                     -0.15422175E+08                      0.18688296E+07                      0.17318020E-01
    2.5800                      0.41282291E+01                      0.79953822E+06                     -0.20641083E+06                      0.26727773E+07                     -0.38171795E+07                     -0.14108762E+08                      0.15149649E+07                      0.17123070E-01
    2.5900                      0.41231661E+01                      0.74459545E+06                     -0.17830922E+06                      0.26716062E+07                     -0.30463268E+07                     -0.12545927E+08                      0.11315609E+07                      0.16940600E-01
    2.6000                      0.41181035E+01                      0.69066663E+06                     -0.15112836E+06                      0.26726462E+07                     -0.23145136E+07                     -0.11018022E+08                      0.72650023E+06                      0.16771290E-01
    2.6100                      0.41130409E+01                      0.64679552E+06                     -0.12696169E+06                      0.26757089E+07                     -0.16813281E+07                     -0.97912891E+07                      0.30827281E+06                      0.16615990E-01
    2.6200                      0.41079779E+01                      0.61235047E+06                     -0.10646119E+06                      0.26803548E+07                     -0.11654501E+07                     -0.88482799E+07                     -0.11351625E+06                      0.16475170E-01
    2.6300                      0.41029153E+01                      0.57782746E+06                     -0.88223049E+05                      0.26859210E+07                     -0.72579440E+06                     -0.79158714E+07                     -0.53280107E+06                      0.16349110E-01
    2.6400                      0.40978522E+01                      0.53055091E+06                     -0.71251007E+05                      0.26916236E+07                     -0.33317742E+06                     -0.66218586E+07                     -0.94023099E+06                      0.16238200E-01
[...]
   59.3500                     -0.81603044E+00                      0.18844533E+06                      0.37551704E+05                      0.29205492E+07                      0.88650239E+06                     -0.46906131E+07                     -0.49156743E+06                      0.11992990E-01
   59.3600                     -0.80648601E+00                      0.18021525E+06                      0.37459153E+05                      0.29200932E+07                      0.88436622E+06                     -0.44454803E+07                     -0.72313638E+06                      0.11973330E-01
   59.3700                     -0.79694515E+00                      0.16845814E+06                      0.36642545E+05                      0.29196431E+07                      0.86003672E+06                     -0.40856635E+07                     -0.93372529E+06                      0.11981190E-01
   59.3800                     -0.78740072E+00                      0.16901188E+06                      0.36207143E+05                      0.29191778E+07                      0.84609660E+06                     -0.40728330E+07                     -0.11107185E+07                      0.12017150E-01
   59.3900                     -0.77785987E+00                      0.18512318E+06                      0.36330031E+05                      0.29187024E+07                      0.84805172E+06                     -0.45015411E+07                     -0.12404693E+07                      0.12081070E-01
   59.4000                     -0.76831543E+00                      0.20835484E+06                      0.36442241E+05                      0.29182228E+07                      0.84977634E+06                     -0.51256903E+07                     -0.13163355E+07                      0.12172200E-01
   59.4100                     -0.75877458E+00                      0.22506811E+06                      0.34683898E+05                      0.29177475E+07                      0.79737590E+06                     -0.55482056E+07                     -0.13351030E+07                      0.12289360E-01
   59.4200                     -0.74923378E+00                      0.22328385E+06                      0.30344940E+05                      0.29172934E+07                      0.67047592E+06                     -0.54202402E+07                     -0.12993817E+07                      0.12431400E-01
   59.4300                     -0.73968929E+00                      0.20712260E+06                      0.23544430E+05                      0.29168564E+07                      0.47287159E+06                     -0.48629109E+07                     -0.12162075E+07                      0.12597840E-01
   59.4400                     -0.73014849E+00                      0.18889740E+06                      0.16198492E+05                      0.29164455E+07                      0.26070800E+06                     -0.42361277E+07                     -0.10940778E+07                      0.12788490E-01
   59.4500                     -0.72060406E+00                      0.18028765E+06                      0.94782233E+04                      0.29160739E+07                      0.68193630E+05                     -0.38805014E+07                     -0.94392270E+06                      0.13003250E-01
   59.4600                     -0.71106321E+00                      0.18993390E+06                      0.44884092E+04                      0.29157297E+07                     -0.72390252E+05                     -0.40488582E+07                     -0.77557006E+06                      0.13241590E-01
   59.4700                     -0.70151877E+00                      0.21024292E+06                      0.74606990E+03                      0.29154110E+07                     -0.17504809E+06                     -0.45201390E+07                     -0.59660641E+06                      0.13502080E-01
   59.4800                     -0.69197792E+00                      0.23261554E+06                     -0.31173043E+04                      0.29150833E+07                     -0.27983977E+06                     -0.50449930E+07                     -0.41238717E+06                      0.13782910E-01
   59.4900                     -0.68243349E+00                      0.24351353E+06                     -0.82009004E+04                      0.29147504E+07                     -0.41895777E+06                     -0.52296303E+07                     -0.22263370E+06                      0.14081930E-01
   59.5000                     -0.67289263E+00                      0.24253653E+06                     -0.14790759E+05                      0.29144138E+07                     -0.60080209E+06                     -0.50633109E+07                     -0.26700190E+05                      0.14397490E-01
   59.5100                     -0.66344202E+00                      0.23233282E+06                     -0.21389701E+05                      0.29140798E+07                     -0.78160338E+06                     -0.46258006E+07                      0.17793712E+06                      0.14728220E-01
   59.5200                     -0.65398782E+00                      0.22761804E+06                     -0.26511892E+05                      0.29137066E+07                     -0.91781048E+06                     -0.43432288E+07                      0.39200138E+06                      0.15073160E-01
   59.5300                     -0.64453721E+00                      0.24010699E+06                     -0.29187333E+05                      0.29132896E+07                     -0.98106517E+06                     -0.45574469E+07                      0.61272297E+06                      0.15430980E-01
   59.5400                     -0.63508296E+00                      0.27407967E+06                     -0.30295511E+05                      0.29127970E+07                     -0.99729827E+06                     -0.53942728E+07                      0.83452463E+06                      0.15799680E-01
   59.5500                     -0.62563241E+00                      0.31561536E+06                     -0.29985558E+05                      0.29122405E+07                     -0.97098614E+06                     -0.64487234E+07                      0.10481672E+07                      0.16176340E-01
   59.5600                     -0.61617815E+00                      0.34808565E+06                     -0.29655411E+05                      0.29116449E+07                     -0.94300722E+06                     -0.72371311E+07                      0.12411358E+07                      0.16557830E-01
   59.5700                     -0.60672754E+00                      0.35843578E+06                     -0.29390789E+05                      0.29110243E+07                     -0.91603031E+06                     -0.73798284E+07                      0.14002358E+07                      0.16941210E-01
   59.5800                     -0.59727335E+00                      0.35205529E+06                     -0.28617628E+05                      0.29103989E+07                     -0.87340102E+06                     -0.70353566E+07                      0.15119393E+07                      0.17324460E-01
   59.5900                     -0.58782274E+00                      0.34366390E+06                     -0.25054278E+05                      0.29097991E+07                     -0.74854860E+06                     -0.66341874E+07                      0.15670322E+07                      0.17706120E-01
   59.6000                     -0.57837212E+00                      0.33879455E+06                     -0.18766259E+05                      0.29092120E+07                     -0.54375583E+06                     -0.63365182E+07                      0.15586733E+07                      0.18084920E-01
   59.6100                     -0.56891793E+00                      0.34598559E+06                     -0.10105610E+05                      0.29086634E+07                     -0.26960587E+06                     -0.63912543E+07                      0.14882701E+07                      0.18459660E-01
   59.6200                     -0.55946732E+00                      0.36027982E+06                     -0.11733414E+04                      0.29081666E+07                      0.12134584E+05                     -0.66540017E+07                      0.13597792E+07                      0.18828450E-01
   59.6300                     -0.55001307E+00                      0.37531346E+06                      0.67662533E+04                      0.29077377E+07                      0.26416638E+06                     -0.69399859E+07                      0.11820400E+07                      0.19189290E-01
   59.6400                     -0.54056251E+00                      0.37990980E+06                      0.12505358E+05                      0.29073796E+07                      0.45066957E+06                     -0.69241508E+07                      0.96503959E+06                      0.19540050E-01
   59.6500                     -0.53110826E+00                      0.37375897E+06                      0.16451519E+05                      0.29070784E+07                      0.58302216E+06                     -0.65986290E+07                      0.71725654E+06                      0.19879150E-01
   59.6600                     -0.52165765E+00                      0.35617083E+06                      0.19732442E+05                      0.29068064E+07                      0.69369671E+06                     -0.59431962E+07                      0.44621146E+06                      0.20205320E-01
   59.6700                     -0.51220703E+00                      0.34410496E+06                      0.22946140E+05                      0.29065370E+07                      0.79995219E+06                     -0.54535243E+07                      0.15857940E+06                      0.20517970E-01
   59.6800                     -0.50275284E+00                      0.34796274E+06                      0.25698357E+05                      0.29062419E+07                      0.89015171E+06                     -0.54341332E+07                     -0.13937591E+06                      0.20816110E-01
   59.6900                     -0.49330223E+00                      0.36867234E+06                      0.26913431E+05                      0.29058868E+07                      0.93301465E+06                     -0.59127751E+07                     -0.44370411E+06                      0.21098390E-01
   59.7000                     -0.48384801E+00                      0.39582137E+06                      0.25338024E+05                      0.29054502E+07                      0.89217137E+06                     -0.65868144E+07                     -0.74554187E+06                      0.21362860E-01
   59.7100                     -0.47439739E+00                      0.41769046E+06                      0.20535783E+05                      0.29049304E+07                      0.75524767E+06                     -0.71158596E+07                     -0.10384556E+07                      0.21607400E-01
   59.7200                     -0.46494317E+00                      0.42546886E+06                      0.12967109E+05                      0.29043414E+07                      0.53602482E+06                     -0.72438162E+07                     -0.13122614E+07                      0.21830120E-01
   59.7300                     -0.45549256E+00                      0.42341936E+06                      0.42440072E+04                      0.29036968E+07                      0.28213479E+06                     -0.70956319E+07                     -0.15583368E+07                      0.22029840E-01
   59.7400                     -0.44603837E+00                      0.41953517E+06                     -0.44306189E+04                      0.29030252E+07                      0.29283763E+05                     -0.69038970E+07                     -0.17657555E+07                      0.22205830E-01
   59.7500                     -0.43658775E+00                      0.42640900E+06                     -0.13004188E+05                      0.29023329E+07                     -0.22049893E+06                     -0.70352923E+07                     -0.19262339E+07                      0.22357640E-01
   59.7600                     -0.42345437E+00                      0.45126724E+06                     -0.21681529E+05                      0.29016296E+07                     -0.47272758E+06                     -0.76979407E+07                     -0.20313777E+07                      0.22484440E-01
   59.7700                     -0.41031599E+00                      0.48782353E+06                     -0.31247187E+05                      0.29009554E+07                     -0.75013507E+06                     -0.87113890E+07                     -0.20760226E+07                      0.22584850E-01
   59.7800                     -0.39718261E+00                      0.51735057E+06                     -0.40651977E+05                      0.29003093E+07                     -0.10220631E+07                     -0.95289641E+07                     -0.20571486E+07                      0.22657210E-01
   59.7900                     -0.38404423E+00                      0.53318890E+06                     -0.49511638E+05                      0.28997153E+07                     -0.12773902E+07                     -0.99575237E+07                     -0.19715028E+07                      0.22700270E-01
   59.8000                     -0.37091085E+00                      0.52483246E+06                     -0.55851317E+05                      0.28992071E+07                     -0.14589182E+07                     -0.96898882E+07                     -0.18214436E+07                      0.22713190E-01
   59.8100                     -0.35777247E+00                      0.50148190E+06                     -0.59173514E+05                      0.28987697E+07                     -0.15525267E+07                     -0.89932246E+07                     -0.16102544E+07                      0.22696560E-01
   59.8200                     -0.34463909E+00                      0.47257211E+06                     -0.59120395E+05                      0.28984132E+07                     -0.15482255E+07                     -0.81407606E+07                     -0.13443991E+07                      0.22651370E-01
   59.8300                     -0.33150071E+00                      0.45743748E+06                     -0.56894972E+05                      0.28981188E+07                     -0.14817944E+07                     -0.76953672E+07                     -0.10349863E+07                      0.22579170E-01
   59.8400                     -0.31836733E+00                      0.45939774E+06                     -0.53192263E+05                      0.28978368E+07                     -0.13742262E+07                     -0.77533743E+07                     -0.69536687E+06                      0.22480800E-01
   59.8500                     -0.30523396E+00                      0.47257136E+06                     -0.48183712E+05                      0.28975395E+07                     -0.12310796E+07                     -0.81436409E+07                     -0.33798806E+06                      0.22356750E-01
   59.8600                     -0.29209554E+00                      0.47500294E+06                     -0.40905795E+05                      0.28972174E+07                     -0.10246589E+07                     -0.82259001E+07                      0.23326403E+05                      0.22207000E-01
   59.8700                     -0.27896219E+00                      0.46403540E+06                     -0.31001783E+05                      0.28968350E+07                     -0.74478564E+06                     -0.79248025E+07                      0.37849746E+06                      0.22032130E-01
   59.8800                     -0.26582378E+00                      0.44455747E+06                     -0.18870766E+05                      0.28963849E+07                     -0.40303516E+06                     -0.73859342E+07                      0.72003029E+06                      0.21833010E-01
   59.8900                     -0.25269043E+00                      0.42238345E+06                     -0.51235029E+04                      0.28958661E+07                     -0.16753220E+05                     -0.67800511E+07                      0.10407006E+07                      0.21611150E-01
   59.9000                     -0.23955204E+00                      0.40906760E+06                      0.75274074E+04                      0.28952899E+07                      0.33544186E+06                     -0.64455384E+07                      0.13371846E+07                      0.21368380E-01
   59.9100                     -0.22641866E+00                      0.40577346E+06                      0.17629860E+05                      0.28946718E+07                      0.61170657E+06                     -0.64170986E+07                      0.16025279E+07                      0.21106200E-01
   59.9200                     -0.21328528E+00                      0.41167500E+06                      0.24223002E+05                      0.28940239E+07                      0.78459754E+06                     -0.66716167E+07                      0.18309105E+07                      0.20826040E-01
   59.9300                     -0.20014690E+00                      0.41488913E+06                      0.27969894E+05                      0.28933846E+07                      0.87424806E+06                     -0.68616706E+07                      0.20141236E+07                      0.20528960E-01
   59.9400                     -0.18701352E+00                      0.40647203E+06                      0.29729411E+05                      0.28927676E+07                      0.90651492E+06                     -0.67238287E+07                      0.21428613E+07                      0.20216440E-01
   59.9500                     -0.17387512E+00                      0.38730410E+06                      0.30245421E+05                      0.28921776E+07                      0.90347188E+06                     -0.62815414E+07                      0.22086874E+07                      0.19890420E-01
   59.9600                     -0.16074175E+00                      0.36424723E+06                      0.29206916E+05                      0.28916381E+07                      0.85618808E+06                     -0.57320412E+07                      0.22048179E+07                      0.19553340E-01
   59.9700                     -0.14760336E+00                      0.34468007E+06                      0.25964997E+05                      0.28911598E+07                      0.74582251E+06                     -0.52863094E+07                      0.21258616E+07                      0.19207970E-01
   59.9800                     -0.13446999E+00                      0.33813774E+06                      0.20150331E+05                      0.28907416E+07                      0.56173756E+06                     -0.52189825E+07                      0.19729556E+07                      0.18856970E-01
   59.9900                     -0.12133160E+00                      0.34310742E+06                      0.12049281E+05                      0.28903974E+07                      0.31208368E+06                     -0.54827269E+07                      0.17497619E+07                      0.18502380E-01
   60.0000                     -0.10819822E+00                      0.35671130E+06                      0.29402721E+04                      0.28900822E+07                      0.33543531E+05                     -0.59924327E+07                      0.14632578E+07                      0.18145860E-01
