
These predictions were generated by HydroDyn on 08-Aug-2022 at 13:14:53.




    Time                      Wave1Elev                       HydroFxi                       HydroFyi                       HydroFzi                       HydroMxi                       HydroMyi                       HydroMzi
   (sec)                            (m)                            (N)                            (N)                            (N)                          (N-m)                          (N-m)                          (N-m)
    0.0000                    -3.8253E+00                     5.1587E+05                     7.9214E+01                     8.1039E+06                     2.3421E+03                    -9.6777E+06                    -2.1787E+01
    0.0125                    -3.7781E+00                    -1.4889E+05                    -1.6070E+05                     3.1225E+06                    -4.7360E+06                     1.0041E+07                    -1.8524E+04
    0.0250                    -3.7308E+00                     2.3592E+05                    -1.6589E+05                     3.1289E+06                    -4.9193E+06                    -1.2424E+06                    -5.4286E+04
    0.0375                    -3.6836E+00                     5.2990E+05                    -4.6512E+04                     3.1396E+06                    -1.4630E+06                    -9.8926E+06                    -7.5739E+04
    0.0500                    -3.6363E+00                     5.9623E+05                     1.6070E+05                     3.1530E+06                     4.5662E+06                    -1.1875E+07                    -8.0010E+04
    0.0625                    -3.5891E+00                     3.8906E+05                     3.6599E+05                     3.1673E+06                     1.0558E+07                    -5.8310E+06                    -3.5060E+04
    0.0750                    -3.5418E+00                     9.7593E+04                     4.6979E+05                     3.1806E+06                     1.3617E+07                     2.6826E+06                     5.5845E+04
    0.0875                    -3.4946E+00                    -4.4318E+04                     4.4548E+05                     3.1909E+06                     1.2973E+07                     6.8011E+06                     1.8208E+05
    0.1000                    -3.4474E+00                     1.0102E+05                     3.3770E+05                     3.1967E+06                     9.9353E+06                     2.4960E+06                     3.1965E+05
    0.1125                    -3.4001E+00                     4.6628E+05                     2.3238E+05                     3.1970E+06                     7.0161E+06                    -8.2174E+06                     4.4719E+05
    0.1250                    -3.3529E+00                     8.5721E+05                     1.8941E+05                     3.1914E+06                     5.9441E+06                    -1.9611E+07                     5.3639E+05
    0.1375                    -3.3056E+00                     1.0589E+06                     1.9909E+05                     3.1803E+06                     6.4296E+06                    -2.5340E+07                     5.6183E+05
    0.1500                    -3.2584E+00                     1.0030E+06                     1.9762E+05                     3.1649E+06                     6.5809E+06                    -2.3414E+07                     5.2626E+05
    0.1625                    -3.2111E+00                     7.8468E+05                     1.1470E+05                     3.1471E+06                     4.3287E+06                    -1.6643E+07                     4.3291E+05
    0.1750                    -3.1639E+00                     6.0973E+05                    -6.2697E+04                     3.1288E+06                    -7.2128E+05                    -1.1106E+07                     3.0272E+05
    0.1875                    -3.1166E+00                     6.4046E+05                    -2.8150E+05                     3.1118E+06                    -7.0298E+06                    -1.1597E+07                     1.6450E+05
    0.2000                    -3.0694E+00                     8.8745E+05                    -4.5159E+05                     3.0979E+06                    -1.1972E+07                    -1.8437E+07                     4.8533E+04
    0.2125                    -3.0222E+00                     1.2175E+06                    -5.1191E+05                     3.0881E+06                    -1.3770E+07                    -2.7718E+07                    -2.2018E+04
    0.2250                    -2.9749E+00                     1.4027E+06                    -4.6540E+05                     3.0831E+06                    -1.2507E+07                    -3.2747E+07                    -3.8744E+04
    0.2375                    -2.9277E+00                     1.3569E+06                    -3.7798E+05                     3.0830E+06                    -1.0104E+07                    -3.1008E+07                    -4.6963E+03
    0.2500                    -2.8804E+00                     1.0975E+06                    -3.2520E+05                     3.0874E+06                    -8.7522E+06                    -2.3037E+07                     5.7619E+04
    0.2625                    -2.8288E+00                     7.9935E+05                    -3.3998E+05                     3.0946E+06                    -9.3924E+06                    -1.4000E+07                     1.2213E+05
    0.2750                    -2.7772E+00                     6.5859E+05                    -3.8950E+05                     3.1040E+06                    -1.1043E+07                    -9.6696E+06                     1.6169E+05
    0.2875                    -2.7256E+00                     7.2606E+05                    -4.0699E+05                     3.1136E+06                    -1.1734E+07                    -1.1529E+07                     1.5192E+05
    0.3000                    -2.6740E+00                     9.4142E+05                    -3.4192E+05                     3.1216E+06                    -9.9738E+06                    -1.7791E+07                     8.3278E+04
    0.3125                    -2.6223E+00                     1.1109E+06                    -2.0265E+05                     3.1267E+06                    -5.9989E+06                    -2.2735E+07                    -4.3818E+04
    0.3250                    -2.5707E+00                     1.0977E+06                    -5.1774E+04                     3.1279E+06                    -1.6354E+06                    -2.2318E+07                    -2.1602E+05
    0.3375                    -2.5191E+00                     8.7272E+05                     3.6914E+04                     3.1248E+06                     9.5964E+05                    -1.5673E+07                    -4.1499E+05
    0.3500                    -2.4675E+00                     5.6381E+05                     3.1451E+04                     3.1175E+06                     8.4721E+05                    -6.5582E+06                    -6.1718E+05
    0.3625                    -2.4159E+00                     3.5150E+05                    -3.8244E+04                     3.1069E+06                    -1.1083E+06                    -2.7433E+05                    -8.0218E+05
    0.3750                    -2.3643E+00                     3.5990E+05                    -1.0259E+05                     3.0939E+06                    -2.8888E+06                    -4.6254E+05                    -9.5300E+05
    0.3875                    -2.3126E+00                     5.7171E+05                    -1.0373E+05                     3.0800E+06                    -2.8224E+06                    -6.6020E+06                    -1.0594E+06
    0.4000                    -2.2610E+00                     8.4527E+05                    -3.4672E+04                     3.0664E+06                    -7.2533E+05                    -1.4518E+07                    -1.1174E+06
    0.4125                    -2.2094E+00                     1.0095E+06                     5.7030E+04                     3.0546E+06                     1.9950E+06                    -1.9177E+07                    -1.1288E+06
    0.4250                    -2.1578E+00                     9.7696E+05                     1.0805E+05                     3.0458E+06                     3.4759E+06                    -1.8017E+07                    -1.1002E+06
    0.4375                    -2.1062E+00                     8.0308E+05                     8.6362E+04                     3.0409E+06                     2.7764E+06                    -1.2687E+07                    -1.0408E+06
    0.4500                    -2.0546E+00                     6.4327E+05                     1.4760E+04                     3.0399E+06                     5.6334E+05                    -7.7799E+06                    -9.5891E+05
    0.4625                    -2.0030E+00                     6.4738E+05                    -4.7286E+04                     3.0426E+06                    -1.4200E+06                    -7.7201E+06                    -8.6053E+05
    0.4750                    -1.9513E+00                     8.4833E+05                    -4.6268E+04                     3.0480E+06                    -1.6015E+06                    -1.3483E+07                    -7.4616E+05
    0.4875                    -1.8997E+00                     1.1575E+06                     2.2990E+04                     3.0549E+06                     1.8045E+05                    -2.2464E+07                    -6.1641E+05
    0.5000                    -1.8481E+00                     1.4103E+06                     1.1622E+05                     3.0618E+06                     2.6448E+06                    -2.9822E+07                    -4.6949E+05
    0.5125                    -1.7913E+00                     1.4840E+06                     1.6961E+05                     3.0668E+06                     3.9410E+06                    -3.1967E+07                    -3.0707E+05
    0.5250                    -1.7344E+00                     1.3693E+06                     1.4709E+05                     3.0694E+06                     3.0307E+06                    -2.8606E+07                    -1.3117E+05
    0.5375                    -1.6776E+00                     1.1815E+06                     6.4423E+04                     3.0686E+06                     3.8581E+05                    -2.3137E+07                     3.6243E+04
    0.5500                    -1.6207E+00                     1.0693E+06                    -2.2857E+04                     3.0643E+06                    -2.3591E+06                    -1.9930E+07                     2.0034E+05
    0.5625                    -1.5639E+00                     1.1227E+06                    -6.0062E+04                     3.0565E+06                    -3.6022E+06                    -2.1616E+07                     3.4669E+05
    0.5750                    -1.5070E+00                     1.3091E+06                    -3.1023E+04                     3.0458E+06                    -2.8720E+06                    -2.7217E+07                     4.7123E+05
    0.5875                    -1.4502E+00                     1.4988E+06                     3.2994E+04                     3.0332E+06                    -1.0860E+06                    -3.2898E+07                     5.7128E+05
    0.6000                    -1.3933E+00                     1.5540E+06                     7.7418E+04                     3.0200E+06                     1.5526E+05                    -3.4592E+07                     6.5134E+05
    0.6125                    -1.3365E+00                     1.4171E+06                     6.8464E+04                     3.0076E+06                    -1.4042E+05                    -3.0597E+07                     7.1311E+05
    0.6250                    -1.2796E+00                     1.1423E+06                     1.7121E+04                     2.9975E+06                    -1.6559E+06                    -2.2501E+07                     7.5705E+05
    0.6375                    -1.2228E+00                     8.7378E+05                    -2.8142E+04                     2.9907E+06                    -2.9779E+06                    -1.4549E+07                     7.8333E+05
    0.6500                    -1.1659E+00                     7.3620E+05                    -1.7653E+04                     2.9878E+06                    -2.6576E+06                    -1.0412E+07                     7.9020E+05
    0.6625                    -1.1091E+00                     7.7019E+05                     6.3631E+04                     2.9888E+06                    -2.5732E+05                    -1.1286E+07                     7.7671E+05
    0.6750                    -1.0522E+00                     8.9597E+05                     1.8555E+05                     2.9931E+06                     3.3413E+06                    -1.4825E+07                     7.4449E+05
    0.6875                    -9.9538E-01                     9.7919E+05                     2.9345E+05                     2.9998E+06                     6.5434E+06                    -1.7083E+07                     6.9519E+05
    0.7000                    -9.3853E-01                     9.2628E+05                     3.4679E+05                     3.0077E+06                     8.1686E+06                    -1.5321E+07                     6.3171E+05
    0.7125                    -8.8169E-01                     7.3947E+05                     3.4486E+05                     3.0154E+06                     8.2014E+06                    -9.6228E+06                     5.5754E+05
    0.7250                    -8.2484E-01                     5.2138E+05                     3.2353E+05                     3.0215E+06                     7.6930E+06                    -3.0278E+06                     4.7603E+05
    0.7375                    -7.6799E-01                     3.9993E+05                     3.2612E+05                     3.0249E+06                     7.9169E+06                     6.8708E+05                     3.8757E+05
    0.7500                    -7.1114E-01                     4.5532E+05                     3.6982E+05                     3.0247E+06                     9.3703E+06                    -8.4673E+05                     2.9366E+05
    0.7625                    -6.5366E-01                     6.5282E+05                     4.3324E+05                     3.0202E+06                     1.1424E+07                    -6.6320E+06                     1.9341E+05
    0.7750                    -5.9619E-01                     8.8340E+05                     4.7172E+05                     3.0117E+06                     1.2767E+07                    -1.3430E+07                     9.0443E+04
    0.7875                    -5.3871E-01                     1.0233E+06                     4.5104E+05                     3.0000E+06                     1.2390E+07                    -1.7592E+07                    -1.1816E+04
    0.8000                    -4.8124E-01                     1.0220E+06                     3.7163E+05                     2.9862E+06                     1.0298E+07                    -1.7630E+07                    -1.1288E+05
    0.8125                    -4.2376E-01                     9.3032E+05                     2.6804E+05                     2.9716E+06                     7.4919E+06                    -1.5029E+07                    -2.0543E+05
    0.8250                    -3.6628E-01                     8.6670E+05                     1.8350E+05                     2.9578E+06                     5.2268E+06                    -1.3267E+07                    -2.8742E+05
    0.8375                    -3.0881E-01                     9.2297E+05                     1.4120E+05                     2.9463E+06                     4.1727E+06                    -1.5033E+07                    -3.5073E+05
    0.8500                    -2.5133E-01                     1.1101E+06                     1.2924E+05                     2.9381E+06                     3.9759E+06                    -2.0630E+07                    -3.8678E+05
    0.8625                    -1.9385E-01                     1.3463E+06                     1.1063E+05                     2.9339E+06                     3.5528E+06                    -2.7632E+07                    -3.8413E+05
    0.8750                    -1.3638E-01                     1.5164E+06                     5.3667E+04                     2.9340E+06                     1.9792E+06                    -3.2638E+07                    -3.3365E+05
    0.8875                    -7.8899E-02                     1.5426E+06                    -4.6399E+04                     2.9380E+06                    -8.7787E+05                    -3.3357E+07                    -2.3227E+05
    0.9000                    -2.1423E-02                     1.4363E+06                    -1.6212E+05                     2.9452E+06                    -4.2070E+06                    -3.0120E+07                    -8.5781E+04
    0.9125                     3.6054E-02                     1.2846E+06                    -2.5708E+05                     2.9544E+06                    -6.9339E+06                    -2.5505E+07                     8.9912E+04
    0.9250                     9.3531E-02                     1.1942E+06                    -3.0860E+05                     2.9640E+06                    -8.3854E+06                    -2.2652E+07                     2.7529E+05
    0.9375                     1.5101E-01                     1.2143E+06                    -3.2496E+05                     2.9725E+06                    -8.7937E+06                    -2.3023E+07                     4.4710E+05
    0.9500                     2.0848E-01                     1.3153E+06                    -3.3545E+05                     2.9786E+06                    -9.0071E+06                    -2.5748E+07                     5.8715E+05
    0.9625                     2.6596E-01                     1.3998E+06                    -3.6903E+05                     2.9811E+06                    -9.8664E+06                    -2.7977E+07                     6.8306E+05
    0.9750                     3.2344E-01                     1.3762E+06                    -4.2981E+05                     2.9793E+06                    -1.1489E+07                    -2.7020E+07                     7.2775E+05
    0.9875                     3.8091E-01                     1.2282E+06                    -4.9591E+05                     2.9733E+06                    -1.3237E+07                    -2.2414E+07                     7.2621E+05
    1.0000                     4.3839E-01                     1.0079E+06                    -5.3265E+05                     2.9634E+06                    -1.4103E+07                    -1.5707E+07                     6.7767E+05
    1.0125                     4.9191E-01                     8.2139E+05                    -5.1786E+05                     2.9504E+06                    -1.3447E+07                    -1.0062E+07                     6.0038E+05
    1.0250                     5.4543E-01                     7.5036E+05                    -4.5601E+05                     2.9357E+06                    -1.1412E+07                    -7.8508E+06                     5.0364E+05
    1.0375                     5.9896E-01                     8.0044E+05                    -3.7268E+05                     2.9209E+06                    -8.7600E+06                    -9.2350E+06                     4.0581E+05
    1.0500                     6.5248E-01                     8.9813E+05                    -2.9666E+05                     2.9075E+06                    -6.3446E+06                    -1.2042E+07                     3.1838E+05
    1.0625                     7.0600E-01                     9.5239E+05                    -2.3933E+05                     2.8969E+06                    -4.5100E+06                    -1.3584E+07                     2.5087E+05
    1.0750                     7.5952E-01                     9.0190E+05                    -1.9039E+05                     2.8900E+06                    -2.9649E+06                    -1.2047E+07                     2.0114E+05
    1.0875                     8.1305E-01                     7.7494E+05                    -1.2765E+05                     2.8875E+06                    -1.0669E+06                    -8.2587E+06                     1.6111E+05
    1.1000                     8.6657E-01                     6.4368E+05                    -3.8809E+04                     2.8892E+06                     1.5406E+06                    -4.3329E+06                     1.1679E+05
    1.1125                     9.2009E-01                     6.0804E+05                     6.7050E+04                     2.8945E+06                     4.5922E+06                    -3.2040E+06                     5.4539E+04
    1.1250                     9.7361E-01                     6.9427E+05                     1.6344E+05                     2.9026E+06                     7.3182E+06                    -5.6343E+06                    -3.6549E+04
    1.1375                     1.0271E+00                     8.6146E+05                     2.2159E+05                     2.9119E+06                     8.8844E+06                    -1.0411E+07                    -1.5676E+05
    1.1500                     1.0807E+00                     1.0234E+06                     2.2824E+05                     2.9210E+06                     8.9129E+06                    -1.4995E+07                    -3.0161E+05
    1.1625                     1.1342E+00                     1.1070E+06                     1.9237E+05                     2.9286E+06                     7.6752E+06                    -1.7241E+07                    -4.5580E+05
    1.1750                     1.1877E+00                     1.0925E+06                     1.3631E+05                     2.9332E+06                     5.8335E+06                    -1.6571E+07                    -6.0202E+05
    1.1875                     1.2412E+00                     1.0280E+06                     7.8976E+04                     2.9342E+06                     3.9496E+06                    -1.4420E+07                    -7.2239E+05
    1.2000                     1.2947E+00                     9.9588E+05                     2.3791E+04                     2.9310E+06                     2.1299E+06                    -1.3221E+07                    -8.0226E+05
    1.2125                     1.3483E+00                     1.0530E+06                    -4.0377E+04                     2.9238E+06                     5.3645E+04                    -1.4659E+07                    -8.3461E+05
    1.2250                     1.4018E+00                     1.1921E+06                    -1.2543E+05                     2.9133E+06                    -2.6250E+06                    -1.8526E+07                    -8.2020E+05
    1.2375                     1.4553E+00                     1.3463E+06                    -2.3036E+05                     2.9005E+06                    -5.8758E+06                    -2.2860E+07                    -7.6843E+05
    1.2500                     1.5088E+00                     1.4388E+06                    -3.3734E+05                     2.8868E+06                    -9.1800E+06                    -2.5404E+07                    -6.9355E+05
    1.2625                     1.5572E+00                     1.4330E+06                    -4.1961E+05                     2.8736E+06                    -1.1758E+07                    -2.5128E+07                    -6.1260E+05
    1.2750                     1.6056E+00                     1.3482E+06                    -4.5651E+05                     2.8624E+06                    -1.3009E+07                    -2.2561E+07                    -5.3923E+05
    1.2875                     1.6540E+00                     1.2573E+06                    -4.4382E+05                     2.8541E+06                    -1.2811E+07                    -1.9847E+07                    -4.8092E+05
    1.3000                     1.7023E+00                     1.2254E+06                    -3.9475E+05                     2.8495E+06                    -1.1552E+07                    -1.8897E+07                    -4.3630E+05
    1.3125                     1.7507E+00                     1.2783E+06                    -3.2749E+05                     2.8488E+06                    -9.7620E+06                    -2.0455E+07                    -3.9690E+05
    1.3250                     1.7991E+00                     1.3722E+06                    -2.5356E+05                     2.8518E+06                    -7.7763E+06                    -2.3219E+07                    -3.4917E+05
    1.3375                     1.8475E+00                     1.4377E+06                    -1.7137E+05                     2.8579E+06                    -5.5450E+06                    -2.5138E+07                    -2.8104E+05
    1.3500                     1.8958E+00                     1.4165E+06                    -7.2457E+04                     2.8659E+06                    -2.8162E+06                    -2.4483E+07                    -1.8436E+05
    1.3625                     1.9442E+00                     1.3133E+06                     4.8075E+04                     2.8745E+06                     5.5720E+05                    -2.1389E+07                    -6.0118E+04
    1.3750                     1.9926E+00                     1.1756E+06                     1.8207E+05                     2.8824E+06                     4.3415E+06                    -1.7250E+07                     7.9612E+04
    1.3875                     2.0410E+00                     1.0764E+06                     3.1102E+05                     2.8883E+06                     7.9994E+06                    -1.4214E+07                     2.1654E+05
    1.4000                     2.0893E+00                     1.0524E+06                     4.1384E+05                     2.8912E+06                     1.0918E+07                    -1.3360E+07                     3.2631E+05
    1.4125                     2.1377E+00                     1.0938E+06                     4.7998E+05                     2.8905E+06                     1.2789E+07                    -1.4400E+07                     3.8810E+05
    1.4250                     2.1861E+00                     1.1430E+06                     5.1240E+05                     2.8863E+06                     1.3696E+07                    -1.5651E+07                     3.8847E+05
    1.4375                     2.2345E+00                     1.1457E+06                     5.2449E+05                     2.8788E+06                     1.4028E+07                    -1.5524E+07                     3.2307E+05
    1.4500                     2.2828E+00                     1.0780E+06                     5.2863E+05                     2.8686E+06                     1.4141E+07                    -1.3330E+07                     2.0119E+05
    1.4625                     2.3312E+00                     9.6526E+05                     5.2563E+05                     2.8573E+06                     1.4052E+07                    -9.8312E+06                     6.1613E+04
    1.4750                     2.3796E+00                     8.6862E+05                     5.0868E+05                     2.8457E+06                     1.3556E+07                    -6.8419E+06                    -9.9044E+04
    1.4875                     2.4280E+00                     8.3765E+05                     4.6912E+05                     2.8351E+06                     1.2395E+07                    -5.8320E+06                    -2.2856E+05
    1.5000                     2.4763E+00                     8.8514E+05                     4.0431E+05                     2.8266E+06                     1.0486E+07                    -7.1845E+06                    -3.2578E+05
    1.5125                     2.5136E+00                     9.6587E+05                     3.2551E+05                     2.8210E+06                     8.1568E+06                    -9.6141E+06                    -3.7441E+05
    1.5250                     2.5509E+00                     1.0302E+06                     2.4859E+05                     2.8187E+06                     5.8695E+06                    -1.1614E+07                    -3.7693E+05
    1.5375                     2.5882E+00                     1.0358E+06                     1.8757E+05                     2.8197E+06                     4.0354E+06                    -1.1934E+07                    -3.4160E+05
    1.5500                     2.6255E+00                     9.9028E+05                     1.4352E+05                     2.8235E+06                     2.6896E+06                    -1.0793E+07                    -2.8315E+05
    1.5625                     2.6628E+00                     9.3455E+05                     1.0840E+05                     2.8293E+06                     1.6034E+06                    -9.3822E+06                    -2.1748E+05
    1.5750                     2.7001E+00                     9.2759E+05                     7.1035E+04                     2.8361E+06                     4.5733E+05                    -9.4234E+06                    -1.6347E+05
    1.5875                     2.7373E+00                     9.9014E+05                     2.5529E+04                     2.8426E+06                    -9.1213E+05                    -1.1511E+07                    -1.2007E+05
    1.6000                     2.7746E+00                     1.1044E+06                    -2.4171E+04                     2.8479E+06                    -2.3819E+06                    -1.5104E+07                    -9.8307E+04
    1.6125                     2.8119E+00                     1.2223E+06                    -6.7340E+04                     2.8510E+06                    -3.6321E+06                    -1.8770E+07                    -8.5751E+04
    1.6250                     2.8492E+00                     1.2954E+06                    -9.6150E+04                     2.8515E+06                    -4.4293E+06                    -2.1077E+07                    -7.5678E+04
    1.6375                     2.8865E+00                     1.3081E+06                    -1.1096E+05                     2.8491E+06                    -4.7821E+06                    -2.1560E+07                    -5.2947E+04
    1.6500                     2.9238E+00                     1.2834E+06                    -1.2117E+05                     2.8440E+06                    -4.9653E+06                    -2.0894E+07                    -7.0548E+03
    1.6625                     2.9611E+00                     1.2667E+06                    -1.3673E+05                     2.8366E+06                    -5.2720E+06                    -2.0427E+07                     7.0758E+04
    1.6750                     2.9984E+00                     1.2907E+06                    -1.6067E+05                     2.8277E+06                    -5.7958E+06                    -2.1123E+07                     1.7908E+05
    1.6875                     3.0357E+00                     1.3542E+06                    -1.8645E+05                     2.8183E+06                    -6.3521E+06                    -2.2955E+07                     3.1191E+05
    1.7000                     3.0729E+00                     1.4201E+06                    -2.0224E+05                     2.8096E+06                    -6.6038E+06                    -2.4846E+07                     4.5621E+05
    1.7125                     3.1102E+00                     1.4396E+06                    -1.9781E+05                     2.8024E+06                    -6.2607E+06                    -2.5369E+07                     5.9930E+05
    1.7250                     3.1475E+00                     1.3873E+06                    -1.7196E+05                     2.7975E+06                    -5.2968E+06                    -2.3793E+07                     7.2836E+05
    1.7375                     3.1848E+00                     1.2746E+06                    -1.3407E+05                     2.7951E+06                    -3.9945E+06                    -2.0468E+07                     8.3567E+05
    1.7500                     3.2221E+00                     1.1400E+06                    -9.4320E+04                     2.7953E+06                    -2.6570E+06                    -1.6538E+07                     9.1620E+05
    1.7625                     3.2461E+00                     1.0277E+06                    -5.9166E+04                     2.7977E+06                    -1.4765E+06                    -1.3359E+07                     9.6623E+05
    1.7750                     3.2701E+00                     9.6436E+05                    -2.5868E+04                     2.8016E+06                    -3.7535E+05                    -1.1667E+07                     9.8490E+05
    1.7875                     3.2941E+00                     9.3259E+05                     1.1988E+04                     2.8064E+06                     8.3336E+05                    -1.0944E+07                     9.7153E+05
    1.8000                     3.3181E+00                     8.9594E+05                     6.0226E+04                     2.8110E+06                     2.3213E+06                    -1.0111E+07                     9.2535E+05
    1.8125                     3.3421E+00                     8.1509E+05                     1.1458E+05                     2.8146E+06                     3.9658E+06                    -7.9989E+06                     8.4650E+05
    1.8250                     3.3661E+00                     6.9572E+05                     1.6445E+05                     2.8164E+06                     5.4615E+06                    -4.7668E+06                     7.3469E+05
    1.8375                     3.3901E+00                     5.6941E+05                     1.9601E+05                     2.8158E+06                     6.4083E+06                    -1.3332E+06                     5.9323E+05
    1.8500                     3.4141E+00                     4.8852E+05                     2.0253E+05                     2.8127E+06                     6.6142E+06                     7.7183E+05                     4.2482E+05
    1.8625                     3.4382E+00                     4.7429E+05                     1.8632E+05                     2.8072E+06                     6.1509E+06                     9.3637E+05                     2.3588E+05
    1.8750                     3.4622E+00                     5.2261E+05                     1.5791E+05                     2.7999E+06                     5.3295E+06                    -7.0730E+05                     3.3681E+04
    1.8875                     3.4862E+00                     6.0959E+05                     1.2635E+05                     2.7916E+06                     4.4165E+06                    -3.4493E+06                    -1.7343E+05
    1.9000                     3.5102E+00                     6.6569E+05                     9.4061E+04                     2.7833E+06                     3.4831E+06                    -5.2374E+06                    -3.7440E+05
    1.9125                     3.5342E+00                     7.0193E+05                     5.5454E+04                     2.7757E+06                     2.3668E+06                    -6.4034E+06                    -5.6313E+05
    1.9250                     3.5582E+00                     6.9790E+05                     4.5863E+03                     2.7698E+06                     8.9403E+05                    -6.3480E+06                    -7.3038E+05
    1.9375                     3.5822E+00                     7.1283E+05                    -6.0119E+04                     2.7660E+06                    -9.8089E+05                    -6.8249E+06                    -8.7409E+05
    1.9500                     3.6062E+00                     7.6514E+05                    -1.3104E+05                     2.7647E+06                    -3.0351E+06                    -8.3835E+06                    -9.9112E+05
    1.9625                     3.6302E+00                     8.7047E+05                    -1.9513E+05                     2.7656E+06                    -4.8874E+06                    -1.1492E+07                    -1.0835E+06
    1.9750                     3.6542E+00                     9.9644E+05                    -2.4043E+05                     2.7686E+06                    -6.1882E+06                    -1.5205E+07                    -1.1505E+06
    1.9875                     3.6782E+00                     1.0996E+06                    -2.6381E+05                     2.7729E+06                    -6.8467E+06                    -1.8251E+07                    -1.1913E+06
    2.0000                     3.7022E+00                     1.1483E+06                    -2.7011E+05                     2.7777E+06                    -7.0043E+06                    -1.9705E+07                    -1.2022E+06
    2.0125                     3.7184E+00                     1.1352E+06                    -2.6818E+05                     2.7821E+06                    -6.9194E+06                    -1.9408E+07                    -1.1798E+06
    2.0250                     3.7346E+00                     1.0949E+06                    -2.6265E+05                     2.7850E+06                    -6.7260E+06                    -1.8335E+07                    -1.1194E+06
    2.0375                     3.7507E+00                     1.0695E+06                    -2.5010E+05                     2.7858E+06                    -6.3235E+06                    -1.7721E+07                    -1.0192E+06
    2.0500                     3.7669E+00                     1.0765E+06                    -2.2444E+05                     2.7840E+06                    -5.5345E+06                    -1.8076E+07                    -8.7896E+05
    2.0625                     3.7831E+00                     1.1063E+06                    -1.7845E+05                     2.7796E+06                    -4.1493E+06                    -1.9112E+07                    -7.0387E+05
    2.0750                     3.7993E+00                     1.1184E+06                    -1.1320E+05                     2.7727E+06                    -2.2004E+06                    -1.9626E+07                    -4.9767E+05
    2.0875                     3.8155E+00                     1.0849E+06                    -3.7275E+04                     2.7642E+06                     5.8397E+04                    -1.8789E+07                    -2.6999E+05
    2.1000                     3.8316E+00                     9.9355E+05                     3.6008E+04                     2.7547E+06                     2.2358E+06                    -1.6229E+07                    -2.9068E+04
    2.1125                     3.8478E+00                     8.7631E+05                     9.8775E+04                     2.7454E+06                     4.0997E+06                    -1.2886E+07                     2.1433E+05
    2.1250                     3.8640E+00                     7.7261E+05                     1.4839E+05                     2.7370E+06                     5.5709E+06                    -9.9141E+06                     4.5442E+05
    2.1375                     3.8802E+00                     7.1078E+05                     1.9027E+05                     2.7306E+06                     6.8061E+06                    -8.1432E+06                     6.8571E+05
    2.1500                     3.8963E+00                     6.8541E+05                     2.2901E+05                     2.7268E+06                     7.9375E+06                    -7.4096E+06                     9.0572E+05
    2.1625                     3.9125E+00                     6.7089E+05                     2.6458E+05                     2.7260E+06                     8.9627E+06                    -6.9598E+06                     1.1147E+06
    2.1750                     3.9287E+00                     6.3686E+05                     2.9053E+05                     2.7283E+06                     9.6930E+06                    -5.9034E+06                     1.3097E+06
    2.1875                     3.9449E+00                     5.7074E+05                     2.9779E+05                     2.7331E+06                     9.8642E+06                    -3.8785E+06                     1.4846E+06
    2.2000                     3.9610E+00                     4.9784E+05                     2.8060E+05                     2.7397E+06                     9.3100E+06                    -1.6382E+06                     1.6293E+06
    2.2125                     3.9772E+00                     4.3874E+05                     2.4121E+05                     2.7469E+06                     8.0994E+06                     2.0009E+05                     1.7307E+06
    2.2250                     3.9934E+00                     4.1392E+05                     1.8906E+05                     2.7538E+06                     6.5115E+06                     1.0272E+06                     1.7737E+06
    2.2375                     4.0096E+00                     4.3467E+05                     1.3344E+05                     2.7591E+06                     4.8217E+06                     5.0313E+05                     1.7473E+06
    2.2500                     4.0258E+00                     4.8624E+05                     8.0008E+04                     2.7620E+06                     3.1986E+06                    -9.4224E+05                     1.6476E+06
    2.2625                     4.0329E+00                     5.4064E+05                     2.7433E+04                     2.7622E+06                     1.6058E+06                    -2.5386E+06                     1.4779E+06
    2.2750                     4.0401E+00                     5.8227E+05                    -2.8940E+04                     2.7590E+06                    -9.0260E+04                    -3.7808E+06                     1.2502E+06
    2.2875                     4.0472E+00                     6.0128E+05                    -9.1296E+04                     2.7527E+06                    -1.9518E+06                    -4.3796E+06                     9.8109E+05
    2.3000                     4.0543E+00                     6.1485E+05                    -1.5665E+05                     2.7437E+06                    -3.8910E+06                    -4.8397E+06                     6.8877E+05
    2.3125                     4.0615E+00                     6.4264E+05                    -2.1525E+05                     2.7329E+06                    -5.6231E+06                    -5.7355E+06                     3.8835E+05
    2.3250                     4.0686E+00                     7.0501E+05                    -2.5845E+05                     2.7214E+06                    -6.8971E+06                    -7.6601E+06                     9.4876E+04
    2.3375                     4.0758E+00                     7.9281E+05                    -2.8103E+05                     2.7103E+06                    -7.5626E+06                    -1.0335E+07                    -1.8561E+05
    2.3500                     4.0829E+00                     8.8553E+05                    -2.8645E+05                     2.7008E+06                    -7.7248E+06                    -1.3150E+07                    -4.4928E+05
    2.3625                     4.0901E+00                     9.5399E+05                    -2.8016E+05                     2.6940E+06                    -7.5473E+06                    -1.5238E+07                    -6.9678E+05
    2.3750                     4.0972E+00                     9.8764E+05                    -2.6900E+05                     2.6904E+06                    -7.2326E+06                    -1.6285E+07                    -9.3052E+05
    2.3875                     4.1044E+00                     9.8945E+05                    -2.5390E+05                     2.6903E+06                    -6.8113E+06                    -1.6376E+07                    -1.1537E+06
    2.4000                     4.1115E+00                     9.7975E+05                    -2.3241E+05                     2.6934E+06                    -6.2141E+06                    -1.6108E+07                    -1.3640E+06
    2.4125                     4.1187E+00                     9.7793E+05                    -2.0021E+05                     2.6993E+06                    -5.3168E+06                    -1.6052E+07                    -1.5568E+06
    2.4250                     4.1258E+00                     9.9198E+05                    -1.5637E+05                     2.7071E+06                    -4.0926E+06                    -1.6443E+07                    -1.7223E+06
    2.4375                     4.1330E+00                     1.0149E+06                    -1.0644E+05                     2.7157E+06                    -2.7041E+06                    -1.7080E+07                    -1.8481E+06
    2.4500                     4.1401E+00                     1.0243E+06                    -5.8626E+04                     2.7238E+06                    -1.3907E+06                    -1.7307E+07                    -1.9212E+06
    2.4625                     4.1473E+00                     9.9954E+05                    -2.0761E+04                     2.7305E+06                    -3.7965E+05                    -1.6524E+07                    -1.9327E+06
    2.4750                     4.1544E+00                     9.4018E+05                     4.4234E+03                     2.7349E+06                     2.5087E+05                    -1.4729E+07                    -1.8784E+06
    2.4875                     4.1616E+00                     8.5993E+05                     2.0145E+04                     2.7361E+06                     5.9717E+05                    -1.2333E+07                    -1.7613E+06
    2.5000                     4.1687E+00                     7.8516E+05                     3.2343E+04                     2.7342E+06                     8.3497E+05                    -1.0119E+07                    -1.5903E+06
    2.5125                     4.1624E+00                     7.4049E+05                     4.4999E+04                     2.7294E+06                     1.0820E+06                    -8.8550E+06                    -1.3796E+06
    2.5250                     4.1561E+00                     7.1837E+05                     5.8681E+04                     2.7221E+06                     1.3566E+06                    -8.2814E+06                    -1.1438E+06
    2.5375                     4.1497E+00                     7.1040E+05                     7.0007E+04                     2.7129E+06                     1.5611E+06                    -8.1526E+06                    -8.9710E+05
    2.5500                     4.1434E+00                     6.9278E+05                     7.5053E+04                     2.7030E+06                     1.5818E+06                    -7.7677E+06                    -6.4661E+05
    2.5625                     4.1371E+00                     6.5373E+05                     7.2961E+04                     2.6935E+06                     1.3942E+06                    -6.7794E+06                    -3.9410E+05
    2.5750                     4.1308E+00                     6.0015E+05                     6.7657E+04                     2.6852E+06                     1.1138E+06                    -5.3891E+06                    -1.3701E+05
    2.5875                     4.1244E+00                     5.5112E+05                     6.4901E+04                     2.6791E+06                     9.1058E+05                    -4.1542E+06                     1.3055E+05
    2.6000                     4.1181E+00                     5.2511E+05                     6.9313E+04                     2.6756E+06                     9.2098E+05                    -3.6138E+06                     4.1330E+05
    2.6125                     4.1118E+00                     5.2724E+05                     8.0166E+04                     2.6750E+06                     1.1217E+06                    -3.9095E+06                     7.1286E+05
    2.6250                     4.1054E+00                     5.4885E+05                     9.3017E+04                     2.6771E+06                     1.3852E+06                    -4.7814E+06                     1.0247E+06
    2.6375                     4.0991E+00                     5.7160E+05                     1.0260E+05                     2.6815E+06                     1.5593E+06                    -5.6853E+06                     1.3379E+06
    2.6500                     4.0928E+00                     5.8717E+05                     1.0604E+05                     2.6873E+06                     1.5615E+06                    -6.3746E+06                     1.6377E+06
    2.6625                     4.0865E+00                     5.8790E+05                     1.0501E+05                     2.6938E+06                     1.4425E+06                    -6.6237E+06                     1.9029E+06
    2.6750                     4.0801E+00                     5.7918E+05                     1.0371E+05                     2.7000E+06                     1.3268E+06                    -6.5907E+06                     2.1114E+06
    2.6875                     4.0738E+00                     5.7742E+05                     1.0536E+05                     2.7051E+06                     1.3105E+06                    -6.7617E+06                     2.2425E+06
    2.7000                     4.0675E+00                     5.9461E+05                     1.1010E+05                     2.7082E+06                     1.3991E+06                    -7.4918E+06                     2.2817E+06
    2.7125                     4.0611E+00                     6.3048E+05                     1.1471E+05                     2.7091E+06                     1.4993E+06                    -8.7755E+06                     2.2258E+06
    2.7250                     4.0548E+00                     6.7063E+05                     1.1485E+05                     2.7076E+06                     1.4853E+06                    -1.0192E+07                     2.0784E+06
    2.7375                     4.0485E+00                     6.9453E+05                     1.0913E+05                     2.7039E+06                     1.3160E+06                    -1.1139E+07                     1.8550E+06
    2.7500                     4.0422E+00                     6.9069E+05                     9.9638E+04                     2.6986E+06                     1.0528E+06                    -1.1282E+07                     1.5735E+06
    2.7625                     4.0243E+00                     6.6244E+05                     9.1314E+04                     2.6927E+06                     8.3902E+05                    -1.0750E+07                     1.2532E+06
    2.7750                     4.0065E+00                     6.2057E+05                     8.8842E+04                     2.6867E+06                     8.1068E+05                    -9.8306E+06                     9.1092E+05
    2.7875                     3.9887E+00                     5.8533E+05                     9.3407E+04                     2.6811E+06                     1.0000E+06                    -9.1161E+06                     5.5924E+05
    2.8000                     3.9709E+00                     5.7025E+05                     1.0319E+05                     2.6768E+06                     1.3529E+06                    -8.9996E+06                     2.0495E+05
    2.8125                     3.9530E+00                     5.7612E+05                     1.1515E+05                     2.6741E+06                     1.7800E+06                    -9.5022E+06                    -1.4849E+05
    2.8250                     3.9352E+00                     5.9151E+05                     1.2773E+05                     2.6732E+06                     2.2329E+06                    -1.0280E+07                    -5.0000E+05
    2.8375                     3.9174E+00                     5.8379E+05                     1.4162E+05                     2.6741E+06                     2.7319E+06                    -1.0370E+07                    -8.4477E+05
    2.8500                     3.8996E+00                     5.5218E+05                     1.5844E+05                     2.6767E+06                     3.3233E+06                    -9.7458E+06                    -1.1753E+06
    2.8625                     3.8817E+00                     5.0042E+05                     1.8000E+05                     2.6803E+06                     4.0600E+06                    -8.5167E+06                    -1.4835E+06
    2.8750                     3.8639E+00                     4.5143E+05                     2.0419E+05                     2.6843E+06                     4.8807E+06                    -7.3567E+06                    -1.7565E+06
    2.8875                     3.8461E+00                     4.1403E+05                     2.2698E+05                     2.6882E+06                     5.6682E+06                    -6.5242E+06                    -1.9865E+06
    2.9000                     3.8283E+00                     3.9386E+05                     2.4259E+05                     2.6913E+06                     6.2540E+06                    -6.1841E+06                    -2.1631E+06
    2.9125                     3.8104E+00                     3.7905E+05                     2.4822E+05                     2.6930E+06                     6.5568E+06                    -5.9877E+06                    -2.2808E+06
    2.9250                     3.7926E+00                     3.5980E+05                     2.4209E+05                     2.6932E+06                     6.5253E+06                    -5.6507E+06                    -2.3352E+06
    2.9375                     3.7748E+00                     3.2200E+05                     2.2733E+05                     2.6918E+06                     6.2504E+06                    -4.7606E+06                    -2.3251E+06
    2.9500                     3.7570E+00                     2.7164E+05                     2.0554E+05                     2.6889E+06                     5.7792E+06                    -3.5000E+06                    -2.2525E+06
    2.9625                     3.7391E+00                     2.2276E+05                     1.7848E+05                     2.6850E+06                     5.1618E+06                    -2.2879E+06                    -2.1184E+06
    2.9750                     3.7213E+00                     1.8242E+05                     1.4418E+05                     2.6805E+06                     4.3396E+06                    -1.3349E+06                    -1.9272E+06
    2.9875                     3.7035E+00                     1.6172E+05                     1.0208E+05                     2.6762E+06                     3.2946E+06                    -9.7137E+05                    -1.6832E+06
    3.0000                     3.6857E+00                     1.5463E+05                     5.1531E+04                     2.6726E+06                     2.0058E+06                    -1.0201E+06                    -1.3896E+06
    3.0125                     3.6665E+00                     1.5037E+05                    -4.7945E+03                     2.6709E+06                     5.4941E+05                    -1.1794E+06                    -1.0521E+06
    3.0250                     3.6474E+00                     1.4178E+05                    -6.3149E+04                     2.6706E+06                    -9.6873E+05                    -1.2220E+06                    -6.7557E+05
    3.0375                     3.6282E+00                     1.3083E+05                    -1.1815E+05                     2.6721E+06                    -2.3938E+06                    -1.2059E+06                    -2.6614E+05
    3.0500                     3.6091E+00                     1.2279E+05                    -1.6784E+05                     2.6751E+06                    -3.6707E+06                    -1.2809E+06                     1.6811E+05
    3.0625                     3.5900E+00                     1.2834E+05                    -2.1133E+05                     2.6793E+06                    -4.7760E+06                    -1.7559E+06                     6.1817E+05
    3.0750                     3.5708E+00                     1.4492E+05                    -2.4984E+05                     2.6841E+06                    -5.7476E+06                    -2.5477E+06                     1.0704E+06
    3.0875                     3.5517E+00                     1.7732E+05                    -2.8349E+05                     2.6890E+06                    -6.5917E+06                    -3.7932E+06                     1.5084E+06
    3.1000                     3.5325E+00                     2.1775E+05                    -3.1190E+05                     2.6932E+06                    -7.2979E+06                    -5.2575E+06                     1.9123E+06
    3.1125                     3.5134E+00                     2.5332E+05                    -3.3242E+05                     2.6962E+06                    -7.7904E+06                    -6.5563E+06                     2.2582E+06
    3.1250                     3.4943E+00                     2.7769E+05                    -3.4297E+05                     2.6975E+06                    -8.0090E+06                    -7.4998E+06                     2.5268E+06
    3.1375                     3.4751E+00                     2.9534E+05                    -3.4208E+05                     2.6968E+06                    -7.9110E+06                    -8.2159E+06                     2.7022E+06
    3.1500                     3.4560E+00                     3.0792E+05                    -3.3203E+05                     2.6943E+06                    -7.5634E+06                    -8.7555E+06                     2.7795E+06
    3.1625                     3.4368E+00                     3.2373E+05                    -3.1591E+05                     2.6902E+06                    -7.0559E+06                    -9.3640E+06                     2.7564E+06
    3.1750                     3.4177E+00                     3.4008E+05                    -2.9667E+05                     2.6853E+06                    -6.4740E+06                    -9.9649E+06                     2.6428E+06
    3.1875                     3.3986E+00                     3.5350E+05                    -2.7603E+05                     2.6800E+06                    -5.8668E+06                    -1.0460E+07                     2.4491E+06
    3.2000                     3.3794E+00                     3.4847E+05                    -2.5395E+05                     2.6752E+06                    -5.2323E+06                    -1.0397E+07                     2.1887E+06
    3.2125                     3.3603E+00                     3.2170E+05                    -2.2981E+05                     2.6716E+06                    -4.5516E+06                    -9.6841E+06                     1.8748E+06
    3.2250                     3.3411E+00                     2.7277E+05                    -2.0297E+05                     2.6696E+06                    -3.8050E+06                    -8.3152E+06                     1.5192E+06
    3.2375                     3.3220E+00                     2.1509E+05                    -1.7494E+05                     2.6697E+06                    -3.0353E+06                    -6.6910E+06                     1.1339E+06
    3.2500                     3.3029E+00                     1.5845E+05                    -1.4783E+05                     2.6719E+06                    -2.3045E+06                    -5.1019E+06                     7.2700E+05
    3.2625                     3.2892E+00                     1.1195E+05                    -1.2374E+05                     2.6766E+06                    -1.6722E+06                    -3.8205E+06                     3.0683E+05
    3.2750                     3.2755E+00                     7.5006E+04                    -1.0332E+05                     2.6828E+06                    -1.1571E+06                    -2.8289E+06                    -1.1684E+05
    3.2875                     3.2619E+00                     3.8016E+04                    -8.5162E+04                     2.6899E+06                    -7.1804E+05                    -1.8480E+06                    -5.3792E+05
    3.3000                     3.2482E+00                    -1.1831E+04                    -6.8282E+04                     2.6971E+06                    -3.2608E+05                    -4.9765E+05                    -9.4701E+05
    3.3125                     3.2346E+00                    -7.3451E+04                    -5.1667E+04                     2.7037E+06                     4.8644E+04                     1.1927E+06                    -1.3377E+06
    3.3250                     3.2209E+00                    -1.3861E+05                    -3.5620E+04                     2.7089E+06                     3.9714E+05                     2.9841E+06                    -1.6991E+06
    3.3375                     3.2072E+00                    -1.8970E+05                    -2.1604E+04                     2.7122E+06                     6.7621E+05                     4.3627E+06                    -2.0214E+06
    3.3500                     3.1936E+00                    -2.1477E+05                    -1.0581E+04                     2.7133E+06                     8.5767E+05                     4.9817E+06                    -2.2930E+06
    3.3625                     3.1799E+00                    -2.1125E+05                    -1.4307E+03                     2.7120E+06                     9.7696E+05                     4.7711E+06                    -2.5021E+06
    3.3750                     3.1663E+00                    -1.8966E+05                     6.1805E+03                     2.7088E+06                     1.0435E+06                     4.0455E+06                    -2.6381E+06
    3.3875                     3.1526E+00                    -1.6047E+05                     1.3563E+04                     2.7042E+06                     1.0927E+06                     3.1135E+06                    -2.6958E+06
    3.4000                     3.1389E+00                    -1.2932E+05                     2.1011E+04                     2.6987E+06                     1.1356E+06                     2.1438E+06                    -2.6719E+06
    3.4125                     3.1253E+00                    -9.8211E+04                     2.7967E+04                     2.6933E+06                     1.1596E+06                     1.1947E+06                    -2.5711E+06
    3.4250                     3.1116E+00                    -5.9543E+04                     3.3229E+04                     2.6886E+06                     1.1270E+06                     3.5418E+04                    -2.3997E+06
    3.4375                     3.0980E+00                    -1.0307E+04                     3.7245E+04                     2.6854E+06                     1.0540E+06                    -1.4273E+06                    -2.1649E+06
    3.4500                     3.0843E+00                     5.3572E+04                     4.0238E+04                     2.6842E+06                     9.5991E+05                    -3.3115E+06                    -1.8750E+06
    3.4625                     3.0706E+00                     1.1798E+05                     4.3878E+04                     2.6852E+06                     8.8637E+05                    -5.2106E+06                    -1.5389E+06
    3.4750                     3.0570E+00                     1.7679E+05                     4.8234E+04                     2.6885E+06                     8.3638E+05                    -6.9485E+06                    -1.1640E+06
    3.4875                     3.0433E+00                     2.1963E+05                     5.2358E+04                     2.6937E+06                     7.8706E+05                    -8.2246E+06                    -7.5436E+05
    3.5000                     3.0297E+00                     2.4666E+05                     5.5269E+04                     2.7005E+06                     7.1177E+05                    -9.0484E+06                    -3.1774E+05
    3.5125                     3.0146E+00                     2.6204E+05                     5.6593E+04                     2.7083E+06                     5.9979E+05                    -9.5340E+06                     1.3692E+05
    3.5250                     2.9995E+00                     2.6536E+05                     5.6823E+04                     2.7162E+06                     4.7168E+05                    -9.6789E+06                     5.8691E+05
    3.5375                     2.9844E+00                     2.6081E+05                     5.8230E+04                     2.7233E+06                     3.9064E+05                    -9.6108E+06                     1.0185E+06
    3.5500                     2.9693E+00                     2.4658E+05                     6.3775E+04                     2.7288E+06                     4.4478E+05                    -9.2721E+06                     1.4035E+06
    3.5625                     2.9542E+00                     2.3215E+05                     7.3074E+04                     2.7324E+06                     6.2335E+05                    -8.9414E+06                     1.7224E+06
    3.5750                     2.9392E+00                     2.1520E+05                     8.5278E+04                     2.7338E+06                     9.0126E+05                    -8.5473E+06                     1.9570E+06
    3.5875                     2.9241E+00                     1.9342E+05                     9.8694E+04                     2.7330E+06                     1.2285E+06                    -8.0195E+06                     2.1009E+06
    3.6000                     2.9090E+00                     1.6185E+05                     1.1203E+05                     2.7304E+06                     1.5663E+06                    -7.2090E+06                     2.1567E+06
    3.6125                     2.8939E+00                     1.1754E+05                     1.2574E+05                     2.7264E+06                     1.9269E+06                    -6.0259E+06                     2.1347E+06
    3.6250                     2.8788E+00                     6.8823E+04                     1.4075E+05                     2.7219E+06                     2.3364E+06                    -4.7150E+06                     2.0499E+06
    3.6375                     2.8637E+00                     1.6436E+04                     1.5781E+05                     2.7175E+06                     2.8156E+06                    -3.2950E+06                     1.9176E+06
    3.6500                     2.8486E+00                    -2.8563E+04                     1.7587E+05                     2.7141E+06                     3.3328E+06                    -2.0909E+06                     1.7499E+06
    3.6625                     2.8335E+00                    -6.3473E+04                     1.9220E+05                     2.7121E+06                     3.8074E+06                    -1.1821E+06                     1.5535E+06
    3.6750                     2.8185E+00                    -8.3153E+04                     2.0359E+05                     2.7121E+06                     4.1452E+06                    -7.2196E+05                     1.3298E+06
    3.6875                     2.8034E+00                    -9.4559E+04                     2.0853E+05                     2.7141E+06                     4.3019E+06                    -5.0791E+05                     1.0777E+06
    3.7000                     2.7883E+00                    -1.0846E+05                     2.0718E+05                     2.7180E+06                     4.2819E+06                    -2.2514E+05                     7.9429E+05
    3.7125                     2.7732E+00                    -1.2899E+05                     2.0051E+05                     2.7237E+06                     4.1133E+06                     2.4452E+05                     4.8035E+05
    3.7250                     2.7581E+00                    -1.5425E+05                     1.8994E+05                     2.7305E+06                     3.8384E+06                     8.4246E+05                     1.3569E+05
    3.7375                     2.7430E+00                    -1.7313E+05                     1.7440E+05                     2.7377E+06                     3.4251E+06                     1.2378E+06                    -2.2755E+05
    3.7500                     2.7279E+00                    -1.8136E+05                     1.5307E+05                     2.7446E+06                     2.8504E+06                     1.3037E+06                    -5.9493E+05
    3.7625                     2.7056E+00                    -1.7051E+05                     1.2407E+05                     2.7508E+06                     2.0589E+06                     8.1386E+05                    -9.4466E+05
    3.7750                     2.6833E+00                    -1.5170E+05                     8.8125E+04                     2.7555E+06                     1.0723E+06                     7.3792E+04                    -1.2537E+06
    3.7875                     2.6610E+00                    -1.2539E+05                     4.7233E+04                     2.7584E+06                    -5.2375E+04                    -9.0575E+05                    -1.4965E+06
    3.8000                     2.6387E+00                    -1.0622E+05                     5.2159E+03                     2.7594E+06                    -1.2069E+06                    -1.6941E+06                    -1.6577E+06
    3.8125                     2.6164E+00                    -8.7878E+04                    -3.5839E+04                     2.7587E+06                    -2.3290E+06                    -2.4733E+06                    -1.7294E+06
    3.8250                     2.5941E+00                    -8.0795E+04                    -7.3478E+04                     2.7566E+06                    -3.3458E+06                    -2.9326E+06                    -1.7133E+06
    3.8375                     2.5718E+00                    -7.7238E+04                    -1.0852E+05                     2.7536E+06                    -4.2822E+06                    -3.2970E+06                    -1.6209E+06
    3.8500                     2.5495E+00                    -7.3917E+04                    -1.3843E+05                     2.7503E+06                    -5.0670E+06                    -3.6598E+06                    -1.4715E+06
    3.8625                     2.5272E+00                    -7.2954E+04                    -1.6319E+05                     2.7475E+06                    -5.7034E+06                    -3.9579E+06                    -1.2847E+06
    3.8750                     2.5049E+00                    -7.2561E+04                    -1.7979E+05                     2.7457E+06                    -6.1020E+06                    -4.2387E+06                    -1.0797E+06
    3.8875                     2.4826E+00                    -7.5662E+04                    -1.8703E+05                     2.7453E+06                    -6.2266E+06                    -4.4096E+06                    -8.6860E+05
    3.9000                     2.4603E+00                    -8.0106E+04                    -1.8253E+05                     2.7466E+06                    -6.0084E+06                    -4.5328E+06                    -6.5865E+05
    3.9125                     2.4380E+00                    -9.2386E+04                    -1.6948E+05                     2.7496E+06                    -5.5411E+06                    -4.4144E+06                    -4.4386E+05
    3.9250                     2.4157E+00                    -1.1463E+05                    -1.4947E+05                     2.7542E+06                    -4.8709E+06                    -3.9893E+06                    -2.1847E+05
    3.9375                     2.3933E+00                    -1.4377E+05                    -1.2570E+05                     2.7599E+06                    -4.0912E+06                    -3.3481E+06                     2.9063E+04
    3.9500                     2.3710E+00                    -1.7913E+05                    -9.9505E+04                     2.7662E+06                    -3.2409E+06                    -2.5093E+06                     3.0505E+05
    3.9625                     2.3487E+00                    -2.1550E+05                    -7.2026E+04                     2.7727E+06                    -2.3529E+06                    -1.6273E+06                     6.0711E+05
    3.9750                     2.3264E+00                    -2.5027E+05                    -4.3815E+04                     2.7786E+06                    -1.4438E+06                    -7.8001E+05                     9.2568E+05
    3.9875                     2.3041E+00                    -2.8147E+05                    -1.5997E+04                     2.7835E+06                    -5.4660E+05                    -2.6738E+04                     1.2393E+06
    4.0000                     2.2818E+00                    -3.0442E+05                     9.6931E+03                     2.7870E+06                     2.8725E+05                     4.9128E+05                     1.5218E+06
    4.0125                     2.2581E+00                    -3.2477E+05                     3.1409E+04                     2.7892E+06                     1.0030E+06                     9.6758E+05                     1.7479E+06
    4.0250                     2.2343E+00                    -3.3956E+05                     4.6658E+04                     2.7899E+06                     1.5268E+06                     1.2811E+06                     1.8926E+06
    4.0375                     2.2106E+00                    -3.6517E+05                     5.6399E+04                     2.7893E+06                     1.8863E+06                     1.9134E+06                     1.9378E+06
    4.0500                     2.1868E+00                    -3.9680E+05                     6.0985E+04                     2.7879E+06                     2.0915E+06                     2.7220E+06                     1.8840E+06
    4.0625                     2.1630E+00                    -4.2901E+05                     6.1559E+04                     2.7861E+06                     2.1758E+06                     3.5450E+06                     1.7358E+06
    4.0750                     2.1393E+00                    -4.5507E+05                     5.8149E+04                     2.7843E+06                     2.1393E+06                     4.1858E+06                     1.5149E+06
    4.0875                     2.1155E+00                    -4.7207E+05                     5.0910E+04                     2.7831E+06                     1.9851E+06                     4.5586E+06                     1.2449E+06
    4.1000                     2.0918E+00                    -4.7947E+05                     3.9109E+04                     2.7830E+06                     1.6914E+06                     4.6496E+06                     9.5174E+05
    4.1125                     2.0680E+00                    -4.8200E+05                     2.2275E+04                     2.7843E+06                     1.2442E+06                     4.6003E+06                     6.5419E+05
    4.1250                     2.0443E+00                    -4.8423E+05                     2.2538E+03                     2.7869E+06                     6.9792E+05                     4.5495E+06                     3.6255E+05
    4.1375                     2.0205E+00                    -4.8132E+05                    -1.8444E+04                     2.7906E+06                     1.2548E+05                     4.3538E+06                     8.1376E+04
    4.1500                     1.9968E+00                    -4.8044E+05                    -3.7592E+04                     2.7953E+06                    -4.0580E+05                     4.2269E+06                    -1.8386E+05
    4.1625                     1.9730E+00                    -4.6564E+05                    -5.3566E+04                     2.8006E+06                    -8.4901E+05                     3.6989E+06                    -4.4353E+05
    4.1750                     1.9493E+00                    -4.5119E+05                    -6.5128E+04                     2.8059E+06                    -1.1655E+06                     3.1928E+06                    -6.8806E+05
    4.1875                     1.9255E+00                    -4.3268E+05                    -7.4412E+04                     2.8108E+06                    -1.4163E+06                     2.5805E+06                    -9.1892E+05
    4.2000                     1.9017E+00                    -4.1994E+05                    -8.1881E+04                     2.8149E+06                    -1.6145E+06                     2.1527E+06                    -1.1269E+06
    4.2125                     1.8780E+00                    -4.0951E+05                    -8.7552E+04                     2.8180E+06                    -1.7602E+06                     1.8093E+06                    -1.3006E+06
    4.2250                     1.8542E+00                    -3.9236E+05                    -9.1367E+04                     2.8198E+06                    -1.8494E+06                     1.2817E+06                    -1.4275E+06
    4.2375                     1.8305E+00                    -3.7057E+05                    -9.2199E+04                     2.8205E+06                    -1.8484E+06                     6.2895E+05                    -1.4957E+06
    4.2500                     1.8067E+00                    -3.4915E+05                    -8.9290E+04                     2.8203E+06                    -1.7375E+06                    -8.5930E+02                    -1.4977E+06
    4.2625                     1.7813E+00                    -3.3232E+05                    -8.2654E+04                     2.8194E+06                    -1.5177E+06                    -4.5121E+05                    -1.4303E+06
    4.2750                     1.7558E+00                    -3.2438E+05                    -7.4443E+04                     2.8183E+06                    -1.2526E+06                    -6.2850E+05                    -1.2992E+06
    4.2875                     1.7303E+00                    -3.2547E+05                    -6.4417E+04                     2.8176E+06                    -9.3538E+05                    -5.2955E+05                    -1.1156E+06
    4.3000                     1.7049E+00                    -3.3451E+05                    -5.4789E+04                     2.8175E+06                    -6.3127E+05                    -1.8542E+05                    -8.9651E+05
    4.3125                     1.6794E+00                    -3.4837E+05                    -4.4775E+04                     2.8184E+06                    -3.1749E+05                     3.1288E+05                    -6.5883E+05
    4.3250                     1.6540E+00                    -3.5538E+05                    -3.5264E+04                     2.8204E+06                    -2.1020E+04                     6.2004E+05                    -4.1975E+05
    4.3375                     1.6285E+00                    -3.6067E+05                    -2.3797E+04                     2.8236E+06                     3.2922E+05                     8.8811E+05                    -1.9000E+05
[...]
   58.9250                    -1.1524E+00                     1.9701E+05                    -2.5024E+03                     2.9322E+06                     4.5554E+04                    -5.4420E+06                     1.2496E+06
   58.9375                    -1.1406E+00                     1.9896E+05                    -8.1025E+03                     2.9323E+06                    -1.2617E+05                    -5.4299E+06                     1.2574E+06
   58.9500                    -1.1287E+00                     2.0715E+05                    -1.5640E+04                     2.9324E+06                    -3.5131E+05                    -5.5985E+06                     1.2331E+06
   58.9625                    -1.1168E+00                     2.2162E+05                    -2.4285E+04                     2.9326E+06                    -6.0606E+05                    -5.9497E+06                     1.1796E+06
   58.9750                    -1.1049E+00                     2.3594E+05                    -3.1808E+04                     2.9326E+06                    -8.2637E+05                    -6.2941E+06                     1.0953E+06
   58.9875                    -1.0930E+00                     2.4425E+05                    -3.7328E+04                     2.9325E+06                    -9.8733E+05                    -6.4587E+06                     9.7760E+05
   59.0000                    -1.0811E+00                     2.4463E+05                    -4.1556E+04                     2.9323E+06                    -1.1108E+06                    -6.3875E+06                     8.2516E+05
   59.0125                    -1.0726E+00                     2.3365E+05                    -4.5217E+04                     2.9318E+06                    -1.2192E+06                    -5.9731E+06                     6.3265E+05
   59.0250                    -1.0641E+00                     2.1547E+05                    -4.8085E+04                     2.9312E+06                    -1.3064E+06                    -5.3422E+06                     4.0502E+05
   59.0375                    -1.0557E+00                     1.9872E+05                    -4.9824E+04                     2.9304E+06                    -1.3632E+06                    -4.7490E+06                     1.4585E+05
   59.0500                    -1.0472E+00                     1.9062E+05                    -4.8674E+04                     2.9297E+06                    -1.3388E+06                    -4.4053E+06                    -1.3331E+05
   59.0625                    -1.0387E+00                     1.8987E+05                    -4.3695E+04                     2.9289E+06                    -1.2053E+06                    -4.2720E+06                    -4.1865E+05
   59.0750                    -1.0302E+00                     1.8950E+05                    -3.4750E+04                     2.9282E+06                    -9.5830E+05                    -4.1439E+06                    -6.9410E+05
   59.0875                    -1.0217E+00                     1.8487E+05                    -2.3098E+04                     2.9275E+06                    -6.3375E+05                    -3.8838E+06                    -9.4200E+05
   59.1000                    -1.0132E+00                     1.7382E+05                    -1.0788E+04                     2.9270E+06                    -2.9071E+05                    -3.4293E+06                    -1.1478E+06
   59.1125                    -1.0048E+00                     1.5886E+05                     8.0301E+02                     2.9266E+06                     3.1541E+04                    -2.8550E+06                    -1.2987E+06
   59.1250                    -9.9628E-01                     1.5067E+05                     1.1210E+04                     2.9263E+06                     3.2037E+05                    -2.4774E+06                    -1.3907E+06
   59.1375                    -9.8779E-01                     1.5090E+05                     2.0913E+04                     2.9262E+06                     5.9040E+05                    -2.3464E+06                    -1.4237E+06
   59.1500                    -9.7931E-01                     1.6181E+05                     3.0637E+04                     2.9261E+06                     8.6327E+05                    -2.5294E+06                    -1.4044E+06
   59.1625                    -9.7083E-01                     1.7874E+05                     4.0206E+04                     2.9261E+06                     1.1338E+06                    -2.8909E+06                    -1.3416E+06
   59.1750                    -9.6235E-01                     1.9889E+05                     4.8083E+04                     2.9260E+06                     1.3565E+06                    -3.3500E+06                    -1.2456E+06
   59.1875                    -9.5387E-01                     2.2072E+05                     5.2937E+04                     2.9258E+06                     1.4920E+06                    -3.8634E+06                    -1.1219E+06
   59.2000                    -9.4538E-01                     2.3805E+05                     5.4264E+04                     2.9256E+06                     1.5248E+06                    -4.2488E+06                    -9.7234E+05
   59.2125                    -9.3690E-01                     2.5274E+05                     5.2182E+04                     2.9252E+06                     1.4573E+06                    -4.5612E+06                    -7.9614E+05
   59.2250                    -9.2842E-01                     2.6941E+05                     4.7465E+04                     2.9247E+06                     1.3108E+06                    -4.9385E+06                    -5.8988E+05
   59.2375                    -9.1994E-01                     2.9180E+05                     4.1958E+04                     2.9241E+06                     1.1389E+06                    -5.4902E+06                    -3.5236E+05
   59.2500                    -9.1145E-01                     3.2026E+05                     3.5368E+04                     2.9234E+06                     9.3328E+05                    -6.2249E+06                    -8.8692E+04
   59.2625                    -8.9952E-01                     3.5224E+05                     2.7524E+04                     2.9226E+06                     6.8862E+05                    -7.0649E+06                     1.8903E+05
   59.2750                    -8.8760E-01                     3.8022E+05                     1.7655E+04                     2.9219E+06                     3.8224E+05                    -7.7892E+06                     4.6424E+05
   59.2875                    -8.7567E-01                     4.0104E+05                     6.3233E+03                     2.9212E+06                     3.1568E+04                    -8.3045E+06                     7.1235E+05
   59.3000                    -8.6374E-01                     4.1424E+05                    -5.1257E+03                     2.9205E+06                    -3.2282E+05                    -8.5981E+06                     9.1144E+05
   59.3125                    -8.5181E-01                     4.2541E+05                    -1.5003E+04                     2.9199E+06                    -6.3032E+05                    -8.8347E+06                     1.0470E+06
   59.3250                    -8.3988E-01                     4.3875E+05                    -2.1762E+04                     2.9194E+06                    -8.4435E+05                    -9.1391E+06                     1.1126E+06
   59.3375                    -8.2796E-01                     4.5745E+05                    -2.5187E+04                     2.9189E+06                    -9.5729E+05                    -9.6067E+06                     1.1126E+06
   59.3500                    -8.1603E-01                     4.7384E+05                    -2.5443E+04                     2.9185E+06                    -9.7279E+05                    -1.0013E+07                     1.0602E+06
   59.3625                    -8.0410E-01                     4.8084E+05                    -2.4059E+04                     2.9181E+06                    -9.3478E+05                    -1.0151E+07                     9.7674E+05
   59.3750                    -7.9217E-01                     4.7525E+05                    -2.1818E+04                     2.9178E+06                    -8.6569E+05                    -9.9271E+06                     8.8112E+05
   59.3875                    -7.8024E-01                     4.5732E+05                    -1.9501E+04                     2.9175E+06                    -7.8844E+05                    -9.3510E+06                     7.8896E+05
   59.4000                    -7.6832E-01                     4.3606E+05                    -1.6620E+04                     2.9172E+06                    -6.8926E+05                    -8.6885E+06                     7.0941E+05
   59.4125                    -7.5639E-01                     4.1912E+05                    -1.2827E+04                     2.9169E+06                    -5.5905E+05                    -8.1656E+06                     6.4125E+05
   59.4250                    -7.4446E-01                     4.1368E+05                    -7.8638E+03                     2.9164E+06                    -3.9181E+05                    -7.9946E+06                     5.7781E+05
   59.4375                    -7.3253E-01                     4.1600E+05                    -1.4441E+03                     2.9158E+06                    -1.8081E+05                    -8.0664E+06                     5.0525E+05
   59.4500                    -7.2060E-01                     4.1726E+05                     5.9161E+03                     2.9151E+06                     5.7078E+04                    -8.1207E+06                     4.1343E+05
   59.4625                    -7.0868E-01                     4.0738E+05                     1.3245E+04                     2.9143E+06                     2.9173E+05                    -7.8604E+06                     2.9387E+05
   59.4750                    -6.9675E-01                     3.8860E+05                     2.0067E+04                     2.9134E+06                     5.0797E+05                    -7.3505E+06                     1.4716E+05
   59.4875                    -6.8482E-01                     3.6323E+05                     2.6698E+04                     2.9125E+06                     7.1441E+05                    -6.6578E+06                    -2.0611E+04
   59.5000                    -6.7289E-01                     3.4596E+05                     3.2431E+04                     2.9117E+06                     8.9006E+05                    -6.2138E+06                    -1.9536E+05
   59.5125                    -6.6108E-01                     3.3700E+05                     3.7550E+04                     2.9107E+06                     1.0436E+06                    -6.0218E+06                    -3.6234E+05
   59.5250                    -6.4926E-01                     3.3638E+05                     4.1279E+04                     2.9099E+06                     1.1531E+06                    -6.0803E+06                    -5.0462E+05
   59.5375                    -6.3745E-01                     3.3376E+05                     4.3056E+04                     2.9092E+06                     1.2033E+06                    -6.0824E+06                    -6.0927E+05
   59.5500                    -6.2563E-01                     3.2069E+05                     4.1298E+04                     2.9086E+06                     1.1491E+06                    -5.7761E+06                    -6.6392E+05
   59.5625                    -6.1382E-01                     2.9623E+05                     3.6052E+04                     2.9081E+06                     9.9322E+05                    -5.1310E+06                    -6.6775E+05
   59.5750                    -6.0200E-01                     2.6688E+05                     2.7963E+04                     2.9078E+06                     7.5586E+05                    -4.3368E+06                    -6.2334E+05
   59.5875                    -5.9018E-01                     2.3988E+05                     1.8677E+04                     2.9076E+06                     4.8613E+05                    -3.6041E+06                    -5.4005E+05
   59.6000                    -5.7837E-01                     2.2927E+05                     9.7923E+03                     2.9074E+06                     2.3148E+05                    -3.3466E+06                    -4.2928E+05
   59.6125                    -5.6656E-01                     2.2264E+05                     2.9227E+03                     2.9071E+06                     3.9482E+04                    -3.1958E+06                    -3.0122E+05
   59.6250                    -5.5474E-01                     2.4607E+05                    -2.7639E+03                     2.9067E+06                    -1.1408E+05                    -3.9263E+06                    -1.6721E+05
   59.6375                    -5.4292E-01                     2.5178E+05                    -7.4958E+03                     2.9063E+06                    -2.3657E+05                    -4.1273E+06                    -2.7614E+04
   59.6500                    -5.3111E-01                     2.4606E+05                    -1.1897E+04                     2.9057E+06                    -3.4658E+05                    -3.9860E+06                     1.1107E+05
   59.6625                    -5.1930E-01                     2.1746E+05                    -1.6399E+04                     2.9051E+06                    -4.5791E+05                    -3.1663E+06                     2.5075E+05
   59.6750                    -5.0748E-01                     1.9203E+05                    -2.0468E+04                     2.9044E+06                    -5.5604E+05                    -2.4378E+06                     3.8858E+05
   59.6875                    -4.9566E-01                     1.8104E+05                    -2.2891E+04                     2.9036E+06                    -6.0659E+05                    -2.1327E+06                     5.1995E+05
   59.7000                    -4.8385E-01                     1.9742E+05                    -2.2103E+04                     2.9029E+06                    -5.6463E+05                    -2.6354E+06                     6.3771E+05
   59.7125                    -4.7203E-01                     2.3128E+05                    -1.8617E+04                     2.9022E+06                    -4.4612E+05                    -3.6545E+06                     7.3221E+05
   59.7250                    -4.6022E-01                     2.6522E+05                    -1.2967E+04                     2.9015E+06                    -2.6707E+05                    -4.6776E+06                     7.9205E+05
   59.7375                    -4.4840E-01                     2.7877E+05                    -7.0453E+03                     2.9009E+06                    -8.2786E+04                    -5.1017E+06                     8.0895E+05
   59.7500                    -4.3659E-01                     2.6780E+05                    -1.9981E+03                     2.9004E+06                     7.3491E+04                    -4.8045E+06                     7.7814E+05
   59.7625                    -4.2017E-01                     2.3868E+05                     1.6529E+03                     2.8999E+06                     1.8719E+05                    -3.9716E+06                     6.9884E+05
   59.7750                    -4.0375E-01                     2.1285E+05                     5.0554E+03                     2.8994E+06                     2.9290E+05                    -3.2310E+06                     5.7771E+05
   59.7875                    -3.8733E-01                     2.0984E+05                     8.5918E+03                     2.8989E+06                     4.0275E+05                    -3.1554E+06                     4.2343E+05
   59.8000                    -3.7091E-01                     2.3468E+05                     1.2453E+04                     2.8985E+06                     5.2318E+05                    -3.8901E+06                     2.4824E+05
   59.8125                    -3.5449E-01                     2.7686E+05                     1.5885E+04                     2.8980E+06                     6.3286E+05                    -5.1249E+06                     6.6467E+04
   59.8250                    -3.3807E-01                     3.0802E+05                     1.7773E+04                     2.8975E+06                     6.9966E+05                    -6.0218E+06                    -1.0821E+05
   59.8375                    -3.2165E-01                     3.1526E+05                     1.6639E+04                     2.8969E+06                     6.8025E+05                    -6.2010E+06                    -2.6484E+05
   59.8500                    -3.0523E-01                     3.0206E+05                     1.3344E+04                     2.8962E+06                     5.9971E+05                    -5.7666E+06                    -3.9410E+05
   59.8625                    -2.8881E-01                     2.8847E+05                     9.4518E+03                     2.8955E+06                     5.0345E+05                    -5.3116E+06                    -4.9344E+05
   59.8750                    -2.7239E-01                     2.9136E+05                     6.0878E+03                     2.8946E+06                     4.2348E+05                    -5.3345E+06                    -5.6311E+05
   59.8875                    -2.5597E-01                     3.1897E+05                     3.8798E+03                     2.8938E+06                     3.7709E+05                    -6.0812E+06                    -6.0827E+05
   59.9000                    -2.3955E-01                     3.5929E+05                     3.5615E+03                     2.8930E+06                     3.8488E+05                    -7.2002E+06                    -6.3805E+05
   59.9125                    -2.2314E-01                     3.9316E+05                     3.0808E+03                     2.8922E+06                     3.8539E+05                    -8.1305E+06                    -6.6004E+05
   59.9250                    -2.0672E-01                     4.0238E+05                     1.7827E+03                     2.8915E+06                     3.5819E+05                    -8.3377E+06                    -6.8407E+05
   59.9375                    -1.9030E-01                     3.8751E+05                    -4.9231E+02                     2.8909E+06                     2.9787E+05                    -7.8412E+06                    -7.1268E+05
   59.9500                    -1.7388E-01                     3.5960E+05                    -1.8191E+03                     2.8903E+06                     2.6047E+05                    -6.9673E+06                    -7.4649E+05
   59.9625                    -1.5745E-01                     3.3677E+05                    -1.4509E+03                     2.8899E+06                     2.6780E+05                    -6.2492E+06                    -7.7739E+05
   59.9750                    -1.4104E-01                     3.3285E+05                     2.0259E+03                     2.8895E+06                     3.6188E+05                    -6.0931E+06                    -7.9501E+05
   59.9875                    -1.2462E-01                     3.4642E+05                     6.9793E+03                     2.8892E+06                     4.9595E+05                    -6.4559E+06                    -7.8630E+05
   60.0000                    -1.0820E-01                     3.7057E+05                     1.1589E+04                     2.8888E+06                     6.1801E+05                    -7.1328E+06                    -7.4154E+05
