
This summary file was generated by TurbSim on 28-Jul-2023 at 11:52:39.


Runtime Options:

     64161  Random seed #1
    RANLUX  Type of random number generator
         F  Output binary HH turbulence parameters?
         F  Output formatted turbulence parameters?
         F  Output AeroDyn HH files?
         T  Output AeroDyn FF files?
         F  Output BLADED FF files?
         F  Output tower data?
         F  Output formatted FF files?
         F  Output coherent turbulence time step file?
         T  Clockwise rotation when looking downwind?
 0 -  NONE  IEC turbulence models scaled to exact specified standard deviation


Turbine/Model Specifications:

        63  Vertical grid-point matrix dimension
        91  Horizontal grid-point matrix dimension
     0.500  Time step [seconds]
    10.000  Analysis time [seconds]
    10.000  Usable output time [seconds]
   156.000  Hub height [m]
   310.000  Grid height [m]
   450.000  Grid width [m]
     0.000  Vertical flow angle [degrees]
     0.000  Horizontal flow angle [degrees]


Meteorological Boundary Conditions:

    TIMESR  User-input time series spectral model
       N/A  IEC standard
       N/A  IEC turbulence characteristic
       N/A  IEC turbulence type
       N/A  IEC Extreme Turbulence Model (ETM) "c" parameter [m/s]
       PL   Wind profile type
    87.600  Reference height [m]
     8.000  Reference wind speed [m/s]
       N/A  Jet height [m]
     0.200  Power law exponent
     0.030  Surface roughness length [m]


Non-IEC Meteorological Boundary Conditions:

    45.000  Site latitude [degrees]
     0.050  Gradient Richardson number
     0.385  Friction or shear velocity [m/s]
       N/A  Mixing layer depth [m]
       N/A  Mean hub u'w' Reynolds stress
       N/A  Mean hub u'v' Reynolds stress
       N/A  Mean hub v'w' Reynolds stress


Spatial Coherence Models:

       IEC  u-component coherence model
       IEC  v-component coherence model
       IEC  w-component coherence model
(   12.000, 0.353E-03)  u-component coherence parameters
(   12.000, 0.353E-03)  v-component coherence parameters
(   12.000, 0.353E-03)  w-component coherence parameters
       N/A  Coherence exponent


Profiles from User-Defined Time-Series Input:

  Height   Wind Speed   Horizontal Angle   Vertical Angle
   (m)        (m/s)          (deg)              (deg)    
  ------   ----------   ----------------   --------------
   71.00       7.67           0.00                0.00


You have requested that the following file(s) be generated:

   D:\data\40_mahfouz\github\repo\r-test\glue-codes\fast-farm\ModAmb_3\Cond00_v08.0_PL0.2_TI6\Case0_wdir0.0\Seed_0\TurbSim\HighT2.bts (AeroDyn/TurbSim full-field wind file)


Turbulence Simulation Scaling Parameter Summary:

   Turbulence model used                            =  User-input time series
   Gradient Richardson number                       =    0.050
   Monin-Obukhov (M-O) z/L parameter                =    0.067
   Monin-Obukhov (M-O) length scale                 = 2340.000 m
   Mean wind speed at hub height                    =    8.979 m/s

   Wind profile type                                =  Power law
   Power law exponent                               =    0.200
   Mean shear across rotor disk                     =    0.023 (m/s)/m
   Assumed rotor diameter                           =  310.000 m
   Surface roughness length                         =    0.030 m

   Nyquist frequency of turbulent wind field        =    1.000 Hz

   Number of time steps in the FFT                  =       20
   Number of time steps output                      =       20
   Number of points simulated                       =     5733


Mean Flow Angles:

   Vertical   =   0.0 degrees
   Horizontal =   0.0 degrees

Mean Wind Speed Profile:

   Height    Wind Speed   Horizontal Angle  Vertical Angle  U-comp (X)   V-comp (Y)   W-comp (Z)
     (m)        (m/s)         (degrees)       (degrees)       (m/s)        (m/s)        (m/s)   
   ------    ----------   ----------------  --------------  ----------   ----------   ----------
    311.0       10.31            0.00            0.00         10.31         0.00         0.00
    306.0       10.27            0.00            0.00         10.27         0.00         0.00
    301.0       10.24            0.00            0.00         10.24         0.00         0.00
    296.0       10.21            0.00            0.00         10.21         0.00         0.00
    291.0       10.17            0.00            0.00         10.17         0.00         0.00
    286.0       10.14            0.00            0.00         10.14         0.00         0.00
    281.0       10.10            0.00            0.00         10.10         0.00         0.00
    276.0       10.06            0.00            0.00         10.06         0.00         0.00
    271.0       10.03            0.00            0.00         10.03         0.00         0.00
    266.0        9.99            0.00            0.00          9.99         0.00         0.00
    261.0        9.95            0.00            0.00          9.95         0.00         0.00
    256.0        9.91            0.00            0.00          9.91         0.00         0.00
    251.0        9.87            0.00            0.00          9.87         0.00         0.00
    246.0        9.84            0.00            0.00          9.84         0.00         0.00
    241.0        9.79            0.00            0.00          9.79         0.00         0.00
    236.0        9.75            0.00            0.00          9.75         0.00         0.00
    231.0        9.71            0.00            0.00          9.71         0.00         0.00
    226.0        9.67            0.00            0.00          9.67         0.00         0.00
    221.0        9.63            0.00            0.00          9.63         0.00         0.00
    216.0        9.58            0.00            0.00          9.58         0.00         0.00
    211.0        9.54            0.00            0.00          9.54         0.00         0.00
    206.0        9.49            0.00            0.00          9.49         0.00         0.00
    201.0        9.45            0.00            0.00          9.45         0.00         0.00
    196.0        9.40            0.00            0.00          9.40         0.00         0.00
    191.0        9.35            0.00            0.00          9.35         0.00         0.00
    186.0        9.30            0.00            0.00          9.30         0.00         0.00
    181.0        9.25            0.00            0.00          9.25         0.00         0.00
    176.0        9.20            0.00            0.00          9.20         0.00         0.00
    171.0        9.15            0.00            0.00          9.15         0.00         0.00
    166.0        9.09            0.00            0.00          9.09         0.00         0.00
    161.0        9.04            0.00            0.00          9.04         0.00         0.00
    156.0        8.98            0.00            0.00          8.98         0.00         0.00
    151.0        8.92            0.00            0.00          8.92         0.00         0.00
    146.0        8.86            0.00            0.00          8.86         0.00         0.00
    141.0        8.80            0.00            0.00          8.80         0.00         0.00
    136.0        8.74            0.00            0.00          8.74         0.00         0.00
    131.0        8.67            0.00            0.00          8.67         0.00         0.00
    126.0        8.60            0.00            0.00          8.60         0.00         0.00
    121.0        8.53            0.00            0.00          8.53         0.00         0.00
    116.0        8.46            0.00            0.00          8.46         0.00         0.00
    111.0        8.39            0.00            0.00          8.39         0.00         0.00
    106.0        8.31            0.00            0.00          8.31         0.00         0.00
    101.0        8.23            0.00            0.00          8.23         0.00         0.00
     96.0        8.15            0.00            0.00          8.15         0.00         0.00
     91.0        8.06            0.00            0.00          8.06         0.00         0.00
     86.0        7.97            0.00            0.00          7.97         0.00         0.00
     81.0        7.88            0.00            0.00          7.88         0.00         0.00
     76.0        7.78            0.00            0.00          7.78         0.00         0.00
     71.0        7.67            0.00            0.00          7.67         0.00         0.00
     66.0        7.56            0.00            0.00          7.56         0.00         0.00
     61.0        7.44            0.00            0.00          7.44         0.00         0.00
     56.0        7.32            0.00            0.00          7.32         0.00         0.00
     51.0        7.18            0.00            0.00          7.18         0.00         0.00
     46.0        7.03            0.00            0.00          7.03         0.00         0.00
     41.0        6.87            0.00            0.00          6.87         0.00         0.00
     36.0        6.70            0.00            0.00          6.70         0.00         0.00
     31.0        6.50            0.00            0.00          6.50         0.00         0.00
     26.0        6.27            0.00            0.00          6.27         0.00         0.00
     21.0        6.01            0.00            0.00          6.01         0.00         0.00
     16.0        5.69            0.00            0.00          5.69         0.00         0.00
     11.0        5.28            0.00            0.00          5.28         0.00         0.00
      6.0        4.68            0.00            0.00          4.68         0.00         0.00
      1.0        3.27            0.00            0.00          3.27         0.00         0.00


Harvested Random Seeds after Generation of the Random Numbers:

      1598024 K 1
            0 K 2


Hub-Height Simulated Turbulence Statistical Summary:

   Type of Wind        Min (m/s)   Mean (m/s)    Max (m/s)  Sigma (m/s)       TI (%)
   ----------------    ---------   ----------    ---------  -----------       ------
   Longitudinal (u)         8.62         8.98         9.34        0.199        2.214
   Lateral (v)             -0.46        -0.00         0.29        0.204        2.276
   Vertical (w)            -0.22        -0.00         0.29        0.134        1.497
   U component              8.62         8.98         9.34        0.199        2.214
   V component             -0.46        -0.00         0.29        0.204        2.276
   W component             -0.22        -0.00         0.29        0.134        1.497
   Horizontal (U&V)         8.63         8.98         9.34        0.198        2.203
   Total                    8.63         8.98         9.34        0.198        2.204

                       Min Reynolds     Mean Reynolds    Max Reynolds    Correlation
   Product             Stress (m/s)^2   Stress (m/s)^2   Stress (m/s)^2  Coefficient
   ----------------    --------------   --------------   --------------  -----------
   u'w'                     -0.042            -0.003             0.046        -0.125
   u'v'                     -0.078             0.002             0.117         0.056
   v'w'                     -0.024             0.015             0.073         0.530


   Friction Velocity (Ustar)  =      0.058 m/s
   Maximum Instantaneous TKE  =      0.118 (m/s)^2
   Maximum Instantaneous CTKE =      0.059 (m/s)^2


Grid Point Variance Summary:

   Y-coord -225.00 -220.00 -215.00 -210.00 -205.00 -200.00 -195.00 -190.00 -185.00 -180.00 -175.00 -170.00 -165.00 -160.00 -155.00 -150.00 -145.00 -140.00 -135.00 -130.00 -125.00 -120.00 -115.00 -110.00 -105.00 -100.00  -95.00  -90.00  -85.00  -80.00  -75.00  -70.00  -65.00  -60.00  -55.00  -50.00  -45.00  -40.00  -35.00  -30.00  -25.00  -20.00  -15.00  -10.00   -5.00    0.00    5.00   10.00   15.00   20.00   25.00   30.00   35.00   40.00   45.00   50.00   55.00   60.00   65.00   70.00   75.00   80.00   85.00   90.00   95.00  100.00  105.00  110.00  115.00  120.00  125.00  130.00  135.00  140.00  145.00  150.00  155.00  160.00  165.00  170.00  175.00  180.00  185.00  190.00  195.00  200.00  205.00  210.00  215.00  220.00  225.00

   Height   Standard deviation at grid points for the u component:
   311.00    0.191   0.136   0.165   0.154   0.180   0.159   0.141   0.168   0.185   0.149   0.150   0.172   0.165   0.193   0.213   0.178   0.158   0.174   0.164   0.131   0.160   0.139   0.180   0.201   0.131   0.174   0.216   0.119   0.180   0.140   0.189   0.204   0.209   0.153   0.171   0.118   0.194   0.184   0.160   0.127   0.229   0.155   0.177   0.238   0.097   0.192   0.141   0.153   0.166   0.138   0.197   0.156   0.185   0.110   0.152   0.147   0.150   0.190   0.133   0.211   0.180   0.150   0.171   0.188   0.181   0.134   0.143   0.139   0.150   0.198   0.242   0.249   0.152   0.147   0.165   0.193   0.140   0.207   0.235   0.126   0.179   0.221   0.148   0.222   0.253   0.174   0.203   0.149   0.180   0.127   0.138
   306.00    0.142   0.147   0.138   0.187   0.212   0.164   0.139   0.206   0.168   0.126   0.144   0.206   0.168   0.145   0.160   0.177   0.196   0.121   0.196   0.212   0.132   0.139   0.187   0.158   0.142   0.174   0.173   0.131   0.169   0.141   0.126   0.162   0.186   0.179   0.114   0.138   0.190   0.148   0.163   0.159   0.205   0.205   0.222   0.221   0.176   0.185   0.137   0.171   0.214   0.165   0.180   0.139   0.173   0.213   0.134   0.136   0.158   0.220   0.155   0.204   0.183   0.233   0.170   0.166   0.161   0.147   0.177   0.191   0.142   0.222   0.215   0.224   0.128   0.175   0.148   0.137   0.114   0.217   0.197   0.178   0.119   0.222   0.168   0.173   0.193   0.228   0.128   0.170   0.145   0.239   0.172
   301.00    0.219   0.176   0.139   0.189   0.223   0.218   0.120   0.210   0.255   0.129   0.205   0.147   0.167   0.130   0.162   0.140   0.134   0.168   0.154   0.196   0.168   0.126   0.190   0.190   0.156   0.194   0.174   0.235   0.134   0.167   0.176   0.105   0.185   0.135   0.212   0.243   0.138   0.194   0.161   0.163   0.148   0.173   0.125   0.143   0.159   0.160   0.116   0.169   0.129   0.132   0.151   0.137   0.174   0.193   0.183   0.161   0.204   0.192   0.259   0.186   0.200   0.202   0.145   0.166   0.117   0.161   0.218   0.196   0.166   0.150   0.189   0.193   0.253   0.201   0.130   0.210   0.271   0.220   0.211   0.209   0.228   0.198   0.200   0.145   0.160   0.146   0.157   0.150   0.149   0.190   0.230
   296.00    0.208   0.185   0.166   0.141   0.194   0.140   0.135   0.175   0.151   0.181   0.149   0.134   0.153   0.171   0.193   0.115   0.147   0.183   0.141   0.192   0.214   0.175   0.198   0.128   0.152   0.197   0.239   0.206   0.194   0.142   0.193   0.202   0.166   0.189   0.208   0.182   0.193   0.137   0.220   0.192   0.137   0.123   0.155   0.191   0.141   0.179   0.210   0.244   0.225   0.224   0.149   0.204   0.178   0.132   0.142   0.153   0.178   0.227   0.240   0.143   0.204   0.132   0.159   0.132   0.138   0.217   0.180   0.179   0.169   0.104   0.135   0.211   0.234   0.131   0.233   0.178   0.250   0.157   0.253   0.213   0.196   0.147   0.178   0.161   0.194   0.128   0.169   0.146   0.129   0.195   0.208
   291.00    0.241   0.129   0.182   0.202   0.132   0.198   0.209   0.234   0.144   0.182   0.215   0.229   0.126   0.169   0.146   0.175   0.174   0.172   0.196   0.123   0.170   0.148   0.189   0.236   0.276   0.194   0.247   0.127   0.207   0.131   0.201   0.142   0.135   0.231   0.151   0.139   0.184   0.154   0.201   0.222   0.131   0.172   0.176   0.196   0.223   0.145   0.192   0.171   0.161   0.138   0.225   0.162   0.214   0.240   0.167   0.222   0.128   0.204   0.220   0.178   0.176   0.168   0.136   0.149   0.169   0.231   0.217   0.156   0.204   0.207   0.205   0.223   0.201   0.221   0.212   0.260   0.214   0.266   0.274   0.305   0.192   0.245   0.286   0.332   0.322   0.258   0.123   0.164   0.150   0.200   0.161
   286.00    0.240   0.185   0.123   0.200   0.138   0.183   0.145   0.230   0.213   0.195   0.217   0.208   0.242   0.243   0.250   0.192   0.176   0.158   0.159   0.168   0.178   0.139   0.173   0.158   0.219   0.230   0.218   0.184   0.172   0.206   0.161   0.163   0.179   0.240   0.195   0.127   0.180   0.152   0.160   0.160   0.128   0.182   0.146   0.167   0.215   0.225   0.256   0.235   0.166   0.197   0.166   0.188   0.191   0.204   0.126   0.209   0.107   0.141   0.195   0.186   0.128   0.150   0.135   0.182   0.136   0.207   0.142   0.126   0.146   0.147   0.139   0.162   0.197   0.224   0.268   0.233   0.245   0.277   0.156   0.239   0.270   0.251   0.274   0.287   0.217   0.203   0.191   0.143   0.128   0.165   0.135
   281.00    0.234   0.178   0.182   0.228   0.183   0.126   0.175   0.193   0.183   0.235   0.167   0.152   0.185   0.212   0.127   0.170   0.190   0.165   0.166   0.143   0.134   0.175   0.191   0.117   0.149   0.167   0.122   0.150   0.131   0.153   0.170   0.176   0.168   0.195   0.214   0.230   0.202   0.147   0.137   0.143   0.162   0.181   0.213   0.121   0.155   0.175   0.180   0.197   0.189   0.167   0.188   0.126   0.154   0.163   0.213   0.197   0.132   0.240   0.145   0.160   0.133   0.138   0.185   0.165   0.120   0.183   0.180   0.250   0.160   0.243   0.157   0.167   0.170   0.117   0.234   0.234   0.244   0.221   0.203   0.177   0.171   0.182   0.229   0.240   0.191   0.145   0.149   0.150   0.204   0.145   0.165
   276.00    0.238   0.149   0.126   0.162   0.223   0.207   0.132   0.149   0.196   0.243   0.259   0.177   0.159   0.173   0.122   0.161   0.215   0.191   0.130   0.170   0.126   0.143   0.154   0.198   0.192   0.159   0.196   0.211   0.171   0.253   0.299   0.281   0.129   0.159   0.193   0.197   0.114   0.185   0.212   0.203   0.157   0.177   0.174   0.105   0.158   0.163   0.151   0.201   0.228   0.126   0.203   0.142   0.176   0.162   0.196   0.146   0.163   0.215   0.167   0.164   0.149   0.162   0.147   0.157   0.136   0.195   0.170   0.205   0.225   0.196   0.138   0.124   0.192   0.263   0.286   0.234   0.233   0.166   0.175   0.171   0.166   0.161   0.197   0.242   0.122   0.183   0.144   0.206   0.202   0.123   0.134
   271.00    0.225   0.167   0.202   0.143   0.176   0.207   0.235   0.227   0.159   0.188   0.204   0.208   0.155   0.179   0.160   0.140   0.213   0.162   0.108   0.137   0.157   0.175   0.243   0.250   0.123   0.199   0.207   0.231   0.164   0.237   0.279   0.231   0.202   0.160   0.198   0.170   0.182   0.126   0.182   0.110   0.150   0.136   0.185   0.237   0.178   0.161   0.123   0.188   0.255   0.268   0.201   0.126   0.157   0.162   0.135   0.197   0.219   0.237   0.146   0.168   0.164   0.131   0.176   0.148   0.151   0.201   0.131   0.176   0.213   0.130   0.151   0.170   0.202   0.204   0.231   0.222   0.132   0.165   0.216   0.171   0.213   0.148   0.171   0.236   0.265   0.125   0.134   0.183   0.195   0.165   0.142
   266.00    0.176   0.197   0.162   0.245   0.171   0.119   0.163   0.192   0.152   0.196   0.218   0.193   0.151   0.187   0.191   0.192   0.179   0.184   0.194   0.152   0.169   0.179   0.170   0.201   0.144   0.209   0.111   0.143   0.154   0.199   0.196   0.227   0.132   0.153   0.172   0.135   0.226   0.201   0.139   0.166   0.120   0.123   0.186   0.195   0.234   0.114   0.156   0.165   0.216   0.211   0.235   0.165   0.111   0.173   0.185   0.139   0.211   0.246   0.195   0.169   0.099   0.142   0.137   0.149   0.143   0.189   0.167   0.191   0.131   0.158   0.179   0.171   0.124   0.168   0.189   0.194   0.133   0.144   0.147   0.186   0.230   0.128   0.147   0.193   0.258   0.123   0.170   0.204   0.152   0.156   0.160
   261.00    0.158   0.112   0.195   0.182   0.252   0.235   0.226   0.206   0.194   0.214   0.187   0.173   0.128   0.138   0.169   0.142   0.174   0.137   0.146   0.209   0.126   0.135   0.150   0.158   0.182   0.192   0.188   0.141   0.148   0.166   0.181   0.164   0.141   0.225   0.113   0.176   0.186   0.142   0.178   0.184   0.217   0.216   0.151   0.215   0.179   0.116   0.141   0.156   0.199   0.225   0.205   0.182   0.238   0.124   0.177   0.149   0.175   0.160   0.152   0.152   0.224   0.140   0.183   0.186   0.163   0.178   0.159   0.159   0.155   0.125   0.193   0.120   0.155   0.179   0.143   0.198   0.168   0.168   0.157   0.184   0.215   0.174   0.136   0.200   0.179   0.194   0.124   0.166   0.145   0.133   0.208
   256.00    0.195   0.189   0.182   0.225   0.200   0.200   0.174   0.157   0.194   0.125   0.130   0.209   0.244   0.128   0.186   0.206   0.216   0.143   0.206   0.140   0.136   0.138   0.170   0.157   0.180   0.248   0.189   0.131   0.137   0.137   0.174   0.182   0.156   0.207   0.143   0.182   0.117   0.158   0.155   0.165   0.170   0.204   0.129   0.207   0.175   0.143   0.188   0.232   0.119   0.148   0.191   0.187   0.202   0.226   0.160   0.131   0.146   0.125   0.162   0.119   0.181   0.234   0.121   0.216   0.169   0.136   0.201   0.229   0.157   0.223   0.238   0.220   0.124   0.146   0.163   0.163   0.203   0.123   0.173   0.122   0.134   0.154   0.201   0.236   0.160   0.167   0.185   0.238   0.195   0.188   0.217
   251.00    0.162   0.155   0.168   0.167   0.131   0.158   0.194   0.139   0.132   0.159   0.203   0.251   0.259   0.125   0.173   0.215   0.152   0.208   0.176   0.154   0.178   0.174   0.135   0.194   0.153   0.197   0.203   0.203   0.260   0.278   0.270   0.147   0.148   0.205   0.188   0.153   0.187   0.163   0.167   0.164   0.173   0.159   0.161   0.150   0.167   0.231   0.146   0.214   0.208   0.123   0.125   0.165   0.196   0.141   0.166   0.138   0.160   0.131   0.129   0.202   0.255   0.235   0.158   0.198   0.228   0.194   0.230   0.287   0.222   0.231   0.165   0.223   0.206   0.159   0.152   0.133   0.185   0.128   0.137   0.150   0.189   0.231   0.206   0.214   0.165   0.157   0.145   0.206   0.258   0.244   0.221
   246.00    0.155   0.150   0.205   0.234   0.177   0.162   0.251   0.212   0.160   0.142   0.178   0.162   0.206   0.224   0.245   0.151   0.158   0.186   0.162   0.229   0.198   0.140   0.190   0.182   0.158   0.151   0.123   0.177   0.211   0.195   0.225   0.173   0.130   0.195   0.124   0.136   0.185   0.141   0.207   0.122   0.139   0.180   0.141   0.190   0.139   0.200   0.261   0.271   0.292   0.285   0.186   0.132   0.221   0.189   0.165   0.200   0.113   0.123   0.196   0.241   0.224   0.251   0.103   0.183   0.176   0.210   0.112   0.214   0.239   0.232   0.245   0.254   0.177   0.169   0.165   0.191   0.239   0.228   0.142   0.168   0.255   0.206   0.125   0.225   0.233   0.256   0.207   0.213   0.268   0.296   0.171
   241.00    0.124   0.162   0.207   0.172   0.217   0.138   0.208   0.231   0.135   0.177   0.182   0.152   0.177   0.191   0.165   0.184   0.118   0.133   0.181   0.232   0.125   0.179   0.181   0.142   0.158   0.165   0.172   0.196   0.169   0.137   0.217   0.256   0.124   0.174   0.200   0.137   0.185   0.212   0.208   0.220   0.138   0.163   0.124   0.154   0.181   0.243   0.164   0.261   0.197   0.243   0.231   0.146   0.185   0.202   0.209   0.205   0.162   0.190   0.235   0.199   0.177   0.186   0.192   0.191   0.136   0.166   0.193   0.182   0.218   0.147   0.200   0.178   0.203   0.179   0.121   0.193   0.242   0.257   0.170   0.140   0.173   0.224   0.228   0.227   0.161   0.227   0.240   0.187   0.223   0.234   0.220
   236.00    0.204   0.157   0.153   0.185   0.208   0.139   0.188   0.213   0.135   0.133   0.192   0.216   0.166   0.151   0.132   0.172   0.198   0.145   0.189   0.189   0.229   0.138   0.176   0.196   0.120   0.168   0.178   0.141   0.155   0.127   0.192   0.204   0.240   0.223   0.149   0.183   0.146   0.154   0.228   0.167   0.145   0.157   0.195   0.159   0.158   0.219   0.213   0.215   0.227   0.176   0.158   0.195   0.122   0.171   0.127   0.196   0.135   0.149   0.183   0.138   0.133   0.216   0.157   0.164   0.188   0.189   0.142   0.156   0.200   0.198   0.192   0.144   0.204   0.169   0.206   0.237   0.177   0.224   0.198   0.133   0.183   0.173   0.175   0.202   0.198   0.251   0.144   0.170   0.139   0.184   0.146
   231.00    0.165   0.180   0.154   0.189   0.211   0.165   0.200   0.241   0.146   0.167   0.146   0.134   0.159   0.197   0.188   0.137   0.160   0.119   0.135   0.174   0.180   0.172   0.193   0.144   0.169   0.244   0.128   0.181   0.150   0.238   0.126   0.208   0.231   0.205   0.161   0.138   0.150   0.214   0.224   0.149   0.182   0.136   0.150   0.141   0.128   0.171   0.224   0.179   0.186   0.147   0.144   0.135   0.174   0.134   0.170   0.171   0.156   0.170   0.134   0.187   0.209   0.251   0.231   0.228   0.197   0.136   0.145   0.160   0.204   0.141   0.151   0.140   0.171   0.123   0.171   0.191   0.224   0.207   0.211   0.181   0.178   0.151   0.191   0.188   0.142   0.226   0.249   0.238   0.122   0.163   0.175
   226.00    0.145   0.168   0.215   0.132   0.146   0.150   0.176   0.177   0.171   0.140   0.164   0.176   0.203   0.136   0.151   0.177   0.166   0.173   0.177   0.184   0.150   0.150   0.183   0.173   0.153   0.175   0.205   0.144   0.208   0.251   0.239   0.155   0.229   0.198   0.130   0.185   0.224   0.227   0.165   0.184   0.186   0.140   0.199   0.163   0.139   0.165   0.162   0.146   0.131   0.178   0.176   0.150   0.170   0.185   0.141   0.254   0.233   0.145   0.210   0.181   0.164   0.186   0.217   0.215   0.171   0.185   0.170   0.165   0.170   0.139   0.133   0.171   0.151   0.185   0.132   0.152   0.165   0.125   0.187   0.162   0.119   0.163   0.136   0.165   0.166   0.171   0.229   0.187   0.138   0.126   0.177
   221.00    0.198   0.150   0.165   0.166   0.243   0.203   0.140   0.123   0.197   0.131   0.149   0.143   0.198   0.113   0.196   0.133   0.144   0.159   0.195   0.134   0.204   0.172   0.131   0.138   0.198   0.175   0.206   0.140   0.198   0.199   0.237   0.211   0.211   0.261   0.233   0.223   0.233   0.227   0.215   0.198   0.138   0.145   0.215   0.239   0.182   0.154   0.139   0.197   0.163   0.197   0.176   0.189   0.114   0.160   0.225   0.278   0.249   0.221   0.248   0.198   0.161   0.219   0.160   0.182   0.125   0.160   0.120   0.148   0.130   0.170   0.247   0.174   0.223   0.142   0.161   0.163   0.141   0.148   0.178   0.207   0.241   0.130   0.155   0.140   0.169   0.207   0.188   0.173   0.226   0.149   0.187
   216.00    0.166   0.170   0.177   0.127   0.206   0.233   0.112   0.215   0.271   0.120   0.244   0.291   0.171   0.197   0.208   0.132   0.122   0.155   0.182   0.261   0.246   0.140   0.130   0.263   0.197   0.209   0.121   0.174   0.144   0.228   0.188   0.159   0.215   0.213   0.200   0.209   0.169   0.171   0.173   0.161   0.165   0.186   0.260   0.241   0.156   0.149   0.207   0.198   0.215   0.138   0.192   0.224   0.195   0.152   0.164   0.206   0.236   0.137   0.204   0.150   0.173   0.219   0.168   0.175   0.225   0.136   0.163   0.197   0.232   0.184   0.168   0.187   0.139   0.148   0.185   0.138   0.170   0.157   0.189   0.205   0.111   0.240   0.210   0.135   0.211   0.166   0.140   0.185   0.127   0.245   0.140
   211.00    0.193   0.236   0.112   0.184   0.146   0.136   0.204   0.190   0.211   0.185   0.229   0.245   0.202   0.251   0.272   0.242   0.155   0.149   0.141   0.215   0.280   0.201   0.282   0.291   0.303   0.137   0.165   0.219   0.178   0.157   0.205   0.184   0.214   0.164   0.113   0.202   0.138   0.153   0.129   0.166   0.235   0.251   0.273   0.200   0.175   0.149   0.194   0.171   0.176   0.177   0.195   0.186   0.124   0.177   0.188   0.104   0.160   0.176   0.175   0.190   0.212   0.208   0.130   0.156   0.158   0.142   0.163   0.132   0.213   0.158   0.183   0.139   0.125   0.168   0.175   0.198   0.179   0.144   0.129   0.154   0.171   0.262   0.318   0.283   0.268   0.156   0.175   0.165   0.162   0.223   0.280
   206.00    0.190   0.220   0.141   0.160   0.148   0.191   0.128   0.174   0.185   0.191   0.240   0.146   0.223   0.232   0.233   0.131   0.196   0.176   0.178   0.182   0.246   0.289   0.287   0.235   0.273   0.119   0.190   0.235   0.125   0.154   0.141   0.185   0.202   0.143   0.201   0.262   0.267   0.171   0.223   0.137   0.178   0.143   0.196   0.273   0.223   0.143   0.210   0.172   0.196   0.155   0.169   0.159   0.129   0.138   0.159   0.185   0.136   0.168   0.183   0.128   0.155   0.167   0.134   0.218   0.269   0.147   0.181   0.215   0.154   0.188   0.153   0.187   0.221   0.123   0.151   0.129   0.162   0.127   0.211   0.226   0.121   0.205   0.245   0.252   0.198   0.152   0.155   0.140   0.199   0.249   0.251
   201.00    0.196   0.179   0.126   0.169   0.171   0.219   0.185   0.158   0.169   0.232   0.239   0.230   0.210   0.227   0.205   0.165   0.189   0.155   0.123   0.188   0.207   0.215   0.183   0.208   0.233   0.148   0.163   0.190   0.139   0.221   0.128   0.180   0.177   0.152   0.169   0.231   0.231   0.219   0.132   0.220   0.210   0.160   0.182   0.258   0.198   0.169   0.211   0.218   0.201   0.179   0.157   0.110   0.185   0.213   0.114   0.131   0.173   0.127   0.170   0.185   0.191   0.129   0.168   0.173   0.214   0.189   0.186   0.175   0.194   0.225   0.256   0.233   0.196   0.201   0.232   0.242   0.223   0.118   0.192   0.225   0.242   0.128   0.202   0.220   0.118   0.161   0.199   0.166   0.243   0.210   0.195
   196.00    0.169   0.182   0.253   0.107   0.142   0.132   0.199   0.139   0.154   0.174   0.191   0.182   0.190   0.138   0.226   0.139   0.138   0.163   0.208   0.234   0.217   0.217   0.144   0.175   0.184   0.154   0.188   0.199   0.176   0.209   0.180   0.156   0.150   0.184   0.226   0.232   0.177   0.167   0.152   0.236   0.233   0.135   0.150   0.223   0.191   0.167   0.173   0.151   0.176   0.187   0.217   0.187   0.156   0.162   0.182   0.166   0.166   0.141   0.166   0.144   0.163   0.247   0.125   0.168   0.224   0.184   0.152   0.160   0.201   0.224   0.168   0.178   0.195   0.113   0.147   0.167   0.140   0.183   0.129   0.153   0.183   0.126   0.201   0.163   0.193   0.127   0.133   0.177   0.200   0.250   0.211
   191.00    0.229   0.172   0.180   0.202   0.179   0.189   0.168   0.237   0.212   0.191   0.214   0.149   0.196   0.170   0.155   0.203   0.224   0.245   0.246   0.159   0.152   0.165   0.180   0.133   0.165   0.142   0.187   0.183   0.141   0.203   0.174   0.140   0.167   0.190   0.228   0.252   0.165   0.276   0.277   0.213   0.193   0.185   0.174   0.156   0.193   0.237   0.269   0.134   0.150   0.221   0.231   0.144   0.146   0.181   0.138   0.150   0.168   0.154   0.172   0.148   0.205   0.262   0.287   0.150   0.139   0.180   0.196   0.200   0.154   0.203   0.109   0.165   0.169   0.164   0.163   0.118   0.188   0.127   0.148   0.173   0.167   0.156   0.204   0.219   0.153   0.155   0.154   0.188   0.197   0.229   0.133
   186.00    0.211   0.198   0.136   0.101   0.135   0.163   0.130   0.183   0.206   0.216   0.177   0.197   0.177   0.129   0.171   0.157   0.208   0.173   0.138   0.190   0.147   0.130   0.133   0.175   0.169   0.114   0.162   0.178   0.138   0.136   0.216   0.163   0.162   0.156   0.184   0.236   0.210   0.265   0.279   0.120   0.155   0.162   0.150   0.163   0.148   0.198   0.201   0.185   0.199   0.211   0.204   0.205   0.185   0.194   0.151   0.131   0.195   0.145   0.184   0.174   0.166   0.220   0.242   0.200   0.245   0.117   0.159   0.125   0.132   0.142   0.142   0.163   0.145   0.141   0.196   0.131   0.153   0.184   0.161   0.126   0.186   0.164   0.201   0.148   0.232   0.215   0.183   0.156   0.182   0.168   0.189
   181.00    0.177   0.143   0.176   0.233   0.229   0.168   0.174   0.248   0.168   0.120   0.223   0.158   0.152   0.173   0.140   0.173   0.206   0.112   0.193   0.185   0.171   0.159   0.214   0.131   0.157   0.146   0.193   0.171   0.112   0.150   0.158   0.194   0.189   0.130   0.172   0.129   0.152   0.198   0.209   0.124   0.158   0.141   0.142   0.154   0.173   0.137   0.145   0.208   0.187   0.197   0.231   0.243   0.300   0.157   0.189   0.140   0.155   0.161   0.142   0.174   0.143   0.210   0.146   0.172   0.171   0.223   0.212   0.180   0.230   0.185   0.193   0.157   0.175   0.258   0.203   0.220   0.197   0.191   0.151   0.138   0.182   0.179   0.153   0.243   0.289   0.132   0.206   0.197   0.130   0.180   0.172
   176.00    0.150   0.171   0.178   0.135   0.196   0.183   0.161   0.159   0.198   0.217   0.232   0.202   0.181   0.203   0.258   0.160   0.211   0.217   0.204   0.162   0.126   0.177   0.224   0.198   0.185   0.175   0.225   0.276   0.292   0.196   0.192   0.232   0.123   0.139   0.151   0.189   0.188   0.119   0.149   0.190   0.148   0.117   0.201   0.133   0.156   0.191   0.184   0.228   0.192   0.107   0.235   0.269   0.247   0.205   0.164   0.133   0.131   0.223   0.193   0.139   0.212   0.208   0.132   0.180   0.178   0.166   0.235   0.145   0.177   0.201   0.244   0.129   0.135   0.211   0.253   0.129   0.216   0.118   0.184   0.232   0.258   0.129   0.156   0.230   0.258   0.262   0.222   0.116   0.130   0.136   0.156
   171.00    0.178   0.211   0.167   0.176   0.154   0.120   0.160   0.173   0.154   0.131   0.163   0.166   0.200   0.249   0.261   0.276   0.269   0.128   0.178   0.181   0.212   0.149   0.172   0.166   0.158   0.149   0.166   0.178   0.249   0.163   0.196   0.189   0.236   0.227   0.162   0.153   0.147   0.168   0.177   0.184   0.206   0.231   0.251   0.314   0.180   0.254   0.124   0.156   0.196   0.217   0.238   0.254   0.147   0.184   0.149   0.151   0.215   0.212   0.203   0.214   0.129   0.155   0.179   0.207   0.149   0.147   0.198   0.229   0.230   0.191   0.201   0.128   0.152   0.204   0.167   0.196   0.210   0.249   0.139   0.179   0.177   0.175   0.138   0.204   0.267   0.216   0.228   0.173   0.154   0.227   0.153
   166.00    0.174   0.186   0.166   0.175   0.191   0.189   0.146   0.150   0.179   0.129   0.195   0.130   0.167   0.169   0.151   0.169   0.199   0.147   0.187   0.164   0.179   0.153   0.141   0.213   0.199   0.187   0.164   0.144   0.176   0.216   0.240   0.227   0.206   0.201   0.174   0.245   0.184   0.122   0.149   0.162   0.176   0.145   0.196   0.260   0.240   0.283   0.153   0.170   0.138   0.147   0.193   0.182   0.151   0.160   0.193   0.171   0.186   0.167   0.165   0.129   0.171   0.140   0.144   0.197   0.190   0.195   0.260   0.269   0.160   0.139   0.202   0.208   0.182   0.172   0.157   0.185   0.129   0.192   0.164   0.175   0.188   0.156   0.165   0.207   0.264   0.121   0.176   0.186   0.206   0.248   0.135
   161.00    0.178   0.184   0.215   0.172   0.238   0.135   0.143   0.192   0.226   0.173   0.114   0.160   0.131   0.127   0.215   0.132   0.126   0.187   0.205   0.238   0.187   0.260   0.234   0.281   0.181   0.148   0.186   0.133   0.140   0.211   0.167   0.199   0.117   0.186   0.134   0.230   0.192   0.139   0.185   0.179   0.160   0.126   0.188   0.200   0.228   0.246   0.270   0.174   0.161   0.132   0.210   0.212   0.147   0.158   0.194   0.150   0.114   0.189   0.135   0.177   0.203   0.206   0.128   0.189   0.161   0.187   0.217   0.213   0.137   0.220   0.145   0.180   0.138   0.201   0.183   0.139   0.172   0.183   0.158   0.149   0.210   0.196   0.158   0.190   0.228   0.176   0.194   0.179   0.140   0.255   0.140
   156.00    0.129   0.139   0.152   0.167   0.196   0.244   0.142   0.137   0.165   0.178   0.185   0.145   0.171   0.161   0.221   0.257   0.171   0.245   0.146   0.187   0.220   0.276   0.284   0.238   0.202   0.149   0.175   0.165   0.183   0.155   0.202   0.171   0.165   0.218   0.159   0.249   0.281   0.166   0.159   0.136   0.123   0.163   0.155   0.238   0.148   0.199   0.259   0.206   0.145   0.173   0.185   0.136   0.124   0.171   0.184   0.126   0.173   0.221   0.131   0.148   0.154   0.161   0.156   0.159   0.143   0.145   0.185   0.202   0.215   0.255   0.200   0.112   0.214   0.228   0.150   0.139   0.178   0.184   0.169   0.234   0.237   0.156   0.199   0.138   0.193   0.184   0.161   0.177   0.254   0.282   0.268
   151.00    0.170   0.163   0.156   0.192   0.179   0.200   0.174   0.204   0.144   0.191   0.204   0.148   0.115   0.197   0.201   0.250   0.225   0.151   0.203   0.146   0.173   0.267   0.284   0.176   0.186   0.168   0.141   0.156   0.140   0.150   0.205   0.239   0.192   0.109   0.219   0.226   0.252   0.173   0.114   0.135   0.126   0.186   0.207   0.156   0.260   0.157   0.259   0.191   0.149   0.150   0.162   0.152   0.164   0.189   0.179   0.163   0.135   0.172   0.169   0.210   0.124   0.133   0.203   0.158   0.171   0.192   0.134   0.213   0.198   0.210   0.222   0.166   0.228   0.202   0.130   0.153   0.177   0.151   0.226   0.149   0.183   0.194   0.142   0.128   0.198   0.164   0.170   0.155   0.208   0.210   0.166
   146.00    0.140   0.140   0.162   0.130   0.197   0.202   0.216   0.160   0.164   0.196   0.160   0.177   0.214   0.141   0.190   0.186   0.167   0.110   0.150   0.137   0.155   0.217   0.242   0.132   0.143   0.172   0.143   0.180   0.224   0.147   0.152   0.153   0.122   0.183   0.200   0.168   0.190   0.240   0.297   0.321   0.214   0.135   0.165   0.161   0.233   0.252   0.302   0.226   0.186   0.184   0.118   0.184   0.122   0.159   0.146   0.168   0.172   0.138   0.171   0.224   0.130   0.167   0.205   0.221   0.181   0.214   0.197   0.195   0.223   0.133   0.139   0.172   0.182   0.201   0.194   0.137   0.238   0.185   0.233   0.231   0.132   0.128   0.160   0.174   0.127   0.147   0.149   0.185   0.190   0.221   0.190
   141.00    0.176   0.134   0.186   0.159   0.199   0.192   0.167   0.182   0.229   0.144   0.169   0.149   0.207   0.160   0.158   0.109   0.146   0.189   0.154   0.149   0.133   0.178   0.137   0.201   0.212   0.157   0.135   0.125   0.168   0.172   0.183   0.184   0.155   0.198   0.192   0.191   0.154   0.250   0.243   0.236   0.214   0.157   0.168   0.141   0.147   0.205   0.245   0.258   0.123   0.166   0.188   0.175   0.156   0.153   0.166   0.218   0.229   0.144   0.149   0.149   0.170   0.215   0.187   0.207   0.151   0.221   0.150   0.128   0.167   0.159   0.149   0.209   0.210   0.140   0.136   0.243   0.296   0.255   0.260   0.209   0.209   0.162   0.160   0.184   0.179   0.175   0.191   0.154   0.186   0.170   0.167
   136.00    0.148   0.168   0.174   0.108   0.133   0.151   0.172   0.197   0.179   0.164   0.164   0.162   0.210   0.225   0.208   0.189   0.163   0.168   0.143   0.194   0.165   0.143   0.145   0.176   0.180   0.183   0.209   0.197   0.115   0.158   0.143   0.141   0.168   0.152   0.143   0.183   0.130   0.228   0.222   0.243   0.200   0.191   0.240   0.209   0.227   0.136   0.156   0.191   0.212   0.149   0.119   0.166   0.142   0.117   0.167   0.176   0.122   0.128   0.172   0.124   0.166   0.131   0.161   0.166   0.141   0.223   0.145   0.193   0.227   0.162   0.131   0.165   0.127   0.132   0.213   0.230   0.240   0.256   0.263   0.214   0.150   0.158   0.141   0.178   0.135   0.161   0.130   0.181   0.123   0.142   0.164
   131.00    0.137   0.178   0.215   0.143   0.163   0.178   0.194   0.228   0.150   0.154   0.199   0.190   0.243   0.214   0.162   0.130   0.123   0.135   0.183   0.165   0.202   0.155   0.167   0.183   0.157   0.181   0.127   0.161   0.187   0.139   0.175   0.152   0.113   0.177   0.164   0.188   0.199   0.241   0.207   0.175   0.216   0.210   0.154   0.178   0.157   0.204   0.187   0.153   0.177   0.180   0.196   0.139   0.169   0.168   0.223   0.114   0.188   0.199   0.172   0.196   0.187   0.210   0.215   0.130   0.142   0.206   0.160   0.236   0.247   0.145   0.154   0.209   0.242   0.208   0.247   0.230   0.140   0.204   0.201   0.164   0.169   0.153   0.133   0.175   0.163   0.169   0.172   0.156   0.209   0.146   0.200
   126.00    0.158   0.186   0.128   0.200   0.130   0.131   0.129   0.176   0.211   0.117   0.145   0.155   0.209   0.257   0.148   0.205   0.274   0.171   0.157   0.167   0.176   0.241   0.150   0.146   0.212   0.151   0.154   0.153   0.132   0.150   0.156   0.166   0.231   0.196   0.173   0.174   0.182   0.189   0.188   0.186   0.201   0.132   0.149   0.178   0.215   0.250   0.147   0.156   0.143   0.133   0.141   0.190   0.210   0.188   0.221   0.181   0.179   0.231   0.152   0.143   0.181   0.142   0.124   0.178   0.252   0.300   0.155   0.235   0.237   0.134   0.194   0.150   0.165   0.182   0.192   0.171   0.151   0.200   0.149   0.179   0.141   0.147   0.154   0.223   0.147   0.112   0.185   0.125   0.167   0.113   0.163
   121.00    0.163   0.156   0.186   0.181   0.142   0.180   0.135   0.142   0.192   0.126   0.187   0.189   0.179   0.235   0.224   0.145   0.220   0.234   0.193   0.163   0.155   0.198   0.123   0.213   0.202   0.161   0.192   0.156   0.152   0.172   0.141   0.129   0.181   0.185   0.169   0.204   0.119   0.192   0.131   0.162   0.180   0.171   0.207   0.121   0.182   0.242   0.264   0.159   0.135   0.192   0.180   0.167   0.223   0.270   0.167   0.245   0.156   0.202   0.148   0.144   0.169   0.188   0.233   0.243   0.261   0.261   0.247   0.223   0.229   0.155   0.206   0.172   0.220   0.258   0.253   0.119   0.129   0.172   0.204   0.241   0.168   0.188   0.200   0.161   0.209   0.182   0.211   0.172   0.151   0.188   0.201
   116.00    0.141   0.198   0.187   0.144   0.188   0.111   0.170   0.176   0.183   0.177   0.197   0.256   0.164   0.143   0.161   0.152   0.164   0.175   0.161   0.212   0.163   0.155   0.277   0.252   0.136   0.175   0.209   0.126   0.194   0.167   0.212   0.171   0.127   0.200   0.202   0.205   0.176   0.160   0.153   0.186   0.146   0.135   0.145   0.182   0.132   0.200   0.252   0.135   0.186   0.179   0.119   0.116   0.249   0.289   0.294   0.289   0.235   0.129   0.187   0.151   0.158   0.174   0.188   0.148   0.220   0.143   0.175   0.170   0.156   0.227   0.141   0.209   0.203   0.242   0.148   0.153   0.212   0.252   0.192   0.139   0.187   0.151   0.152   0.132   0.165   0.164   0.186   0.134   0.178   0.126   0.130
   111.00    0.195   0.252   0.263   0.233   0.134   0.155   0.174   0.150   0.216   0.260   0.167   0.220   0.245   0.201   0.145   0.144   0.198   0.118   0.140   0.150   0.249   0.286   0.290   0.308   0.277   0.170   0.194   0.172   0.157   0.165   0.179   0.207   0.234   0.219   0.157   0.133   0.156   0.185   0.173   0.124   0.123   0.118   0.141   0.128   0.206   0.125   0.158   0.203   0.187   0.146   0.191   0.212   0.313   0.260   0.260   0.285   0.206   0.209   0.161   0.131   0.144   0.141   0.174   0.192   0.233   0.140   0.136   0.146   0.190   0.214   0.211   0.140   0.209   0.193   0.122   0.178   0.131   0.184   0.235   0.279   0.125   0.143   0.149   0.134   0.161   0.133   0.152   0.173   0.151   0.181   0.203
   106.00    0.158   0.182   0.181   0.200   0.151   0.161   0.126   0.154   0.169   0.178   0.161   0.129   0.179   0.202   0.141   0.215   0.112   0.171   0.151   0.229   0.292   0.308   0.310   0.258   0.226   0.128   0.150   0.127   0.122   0.148   0.176   0.148   0.206   0.189   0.190   0.164   0.173   0.147   0.190   0.249   0.171   0.226   0.263   0.281   0.265   0.178   0.157   0.153   0.157   0.160   0.160   0.260   0.284   0.273   0.277   0.267   0.164   0.278   0.137   0.185   0.168   0.141   0.139   0.158   0.183   0.163   0.149   0.212   0.188   0.182   0.135   0.199   0.165   0.168   0.149   0.169   0.212   0.191   0.177   0.224   0.220   0.133   0.181   0.206   0.142   0.201   0.158   0.177   0.163   0.202   0.198
   101.00    0.252   0.132   0.141   0.187   0.204   0.131   0.147   0.196   0.242   0.130   0.143   0.201   0.141   0.187   0.183   0.192   0.233   0.146   0.190   0.213   0.232   0.281   0.283   0.246   0.138   0.148   0.140   0.140   0.158   0.146   0.218   0.137   0.216   0.160   0.114   0.186   0.225   0.181   0.192   0.198   0.151   0.154   0.169   0.193   0.162   0.175   0.171   0.153   0.178   0.163   0.207   0.223   0.199   0.156   0.164   0.233   0.284   0.258   0.255   0.177   0.144   0.176   0.166   0.132   0.159   0.207   0.266   0.156   0.157   0.128   0.116   0.169   0.175   0.160   0.163   0.182   0.195   0.177   0.167   0.169   0.157   0.161   0.166   0.143   0.165   0.191   0.228   0.217   0.139   0.192   0.203
    96.00    0.217   0.237   0.231   0.250   0.238   0.158   0.165   0.151   0.163   0.240   0.132   0.177   0.141   0.139   0.133   0.167   0.140   0.208   0.272   0.148   0.128   0.233   0.302   0.163   0.165   0.157   0.162   0.137   0.191   0.267   0.257   0.238   0.134   0.257   0.289   0.265   0.193   0.134   0.181   0.124   0.209   0.141   0.149   0.129   0.188   0.181   0.201   0.140   0.162   0.158   0.172   0.143   0.190   0.217   0.150   0.156   0.187   0.205   0.163   0.174   0.154   0.141   0.179   0.155   0.126   0.167   0.262   0.297   0.291   0.294   0.233   0.144   0.162   0.174   0.128   0.149   0.135   0.139   0.172   0.177   0.140   0.172   0.153   0.148   0.155   0.189   0.172   0.158   0.172   0.179   0.168
    91.00    0.190   0.239   0.259   0.187   0.182   0.156   0.162   0.203   0.149   0.219   0.237   0.206   0.137   0.152   0.174   0.217   0.225   0.137   0.181   0.234   0.276   0.247   0.257   0.263   0.255   0.193   0.200   0.130   0.175   0.196   0.207   0.232   0.214   0.258   0.248   0.226   0.186   0.133   0.151   0.139   0.187   0.179   0.125   0.195   0.115   0.240   0.192   0.181   0.169   0.186   0.154   0.153   0.190   0.186   0.155   0.149   0.201   0.161   0.118   0.160   0.122   0.185   0.151   0.149   0.168   0.176   0.194   0.245   0.213   0.203   0.139   0.167   0.137   0.165   0.140   0.188   0.221   0.139   0.160   0.159   0.139   0.131   0.143   0.152   0.162   0.219   0.123   0.174   0.194   0.125   0.193
    86.00    0.225   0.226   0.220   0.148   0.212   0.152   0.157   0.212   0.235   0.182   0.215   0.242   0.150   0.183   0.166   0.156   0.154   0.133   0.186   0.178   0.217   0.233   0.200   0.210   0.198   0.134   0.190   0.141   0.174   0.119   0.169   0.196   0.125   0.193   0.161   0.182   0.204   0.107   0.167   0.171   0.213   0.156   0.151   0.171   0.240   0.234   0.223   0.192   0.188   0.196   0.233   0.180   0.135   0.121   0.183   0.253   0.157   0.170   0.137   0.207   0.221   0.215   0.166   0.162   0.166   0.138   0.164   0.212   0.145   0.142   0.202   0.205   0.131   0.195   0.192   0.129   0.146   0.139   0.181   0.114   0.141   0.154   0.193   0.105   0.175   0.243   0.134   0.176   0.156   0.189   0.156
    81.00    0.256   0.146   0.142   0.159   0.160   0.189   0.132   0.132   0.176   0.208   0.134   0.167   0.159   0.182   0.152   0.157   0.218   0.173   0.181   0.176   0.186   0.195   0.250   0.195   0.147   0.122   0.151   0.204   0.181   0.230   0.213   0.122   0.190   0.212   0.128   0.145   0.121   0.152   0.160   0.172   0.188   0.119   0.188   0.127   0.198   0.206   0.173   0.145   0.174   0.170   0.245   0.113   0.154   0.157   0.167   0.193   0.218   0.147   0.162   0.196   0.144   0.140   0.128   0.158   0.198   0.236   0.107   0.179   0.205   0.243   0.214   0.123   0.121   0.210   0.189   0.190   0.159   0.145   0.242   0.291   0.133   0.197   0.138   0.173   0.230   0.245   0.244   0.139   0.146   0.178   0.140
    76.00    0.268   0.268   0.250   0.154   0.177   0.202   0.195   0.230   0.143   0.131   0.160   0.173   0.185   0.127   0.184   0.115   0.193   0.154   0.169   0.170   0.222   0.217   0.219   0.244   0.247   0.146   0.127   0.160   0.145   0.152   0.163   0.142   0.191   0.159   0.155   0.211   0.117   0.174   0.184   0.157   0.156   0.197   0.191   0.142   0.214   0.266   0.223   0.120   0.165   0.210   0.264   0.268   0.124   0.166   0.183   0.127   0.170   0.191   0.186   0.177   0.131   0.189   0.131   0.129   0.173   0.178   0.157   0.148   0.172   0.196   0.119   0.179   0.225   0.227   0.143   0.160   0.146   0.160   0.195   0.209   0.205   0.196   0.171   0.173   0.231   0.166   0.212   0.162   0.113   0.185   0.188
    71.00    0.246   0.294   0.305   0.133   0.166   0.229   0.131   0.210   0.134   0.172   0.122   0.179   0.144   0.171   0.175   0.234   0.170   0.170   0.115   0.171   0.229   0.156   0.153   0.165   0.184   0.193   0.168   0.172   0.146   0.146   0.109   0.201   0.235   0.166   0.220   0.240   0.179   0.154   0.162   0.141   0.135   0.155   0.129   0.127   0.221   0.184   0.266   0.174   0.228   0.256   0.278   0.225   0.210   0.144   0.176   0.157   0.160   0.147   0.158   0.155   0.219   0.158   0.156   0.223   0.153   0.165   0.170   0.138   0.151   0.189   0.187   0.181   0.245   0.203   0.208   0.169   0.130   0.136   0.160   0.170   0.158   0.176   0.122   0.167   0.235   0.163   0.235   0.179   0.192   0.196   0.154
    66.00    0.202   0.242   0.225   0.208   0.112   0.188   0.225   0.229   0.152   0.148   0.205   0.169   0.137   0.159   0.187   0.188   0.213   0.190   0.160   0.118   0.149   0.152   0.199   0.140   0.156   0.119   0.140   0.131   0.152   0.157   0.171   0.257   0.245   0.214   0.179   0.175   0.136   0.148   0.189   0.137   0.134   0.136   0.171   0.207   0.234   0.237   0.247   0.220   0.170   0.213   0.218   0.243   0.133   0.135   0.154   0.147   0.176   0.169   0.149   0.197   0.190   0.156   0.141   0.155   0.170   0.190   0.140   0.164   0.179   0.145   0.152   0.203   0.246   0.131   0.167   0.176   0.148   0.152   0.208   0.119   0.129   0.151   0.223   0.142   0.176   0.222   0.237   0.216   0.136   0.182   0.154
    61.00    0.261   0.224   0.145   0.123   0.157   0.189   0.236   0.161   0.191   0.180   0.176   0.133   0.129   0.173   0.149   0.139   0.184   0.136   0.170   0.168   0.199   0.175   0.160   0.164   0.196   0.184   0.193   0.172   0.227   0.146   0.135   0.216   0.235   0.205   0.155   0.149   0.212   0.162   0.124   0.142   0.172   0.128   0.166   0.155   0.208   0.165   0.213   0.113   0.175   0.184   0.175   0.199   0.147   0.172   0.167   0.156   0.195   0.178   0.164   0.161   0.163   0.163   0.121   0.148   0.194   0.171   0.189   0.132   0.168   0.148   0.154   0.190   0.147   0.203   0.148   0.135   0.205   0.112   0.159   0.150   0.196   0.157   0.187   0.220   0.131   0.109   0.157   0.215   0.221   0.161   0.158
    56.00    0.242   0.256   0.243   0.198   0.150   0.201   0.232   0.191   0.185   0.250   0.227   0.150   0.135   0.182   0.246   0.275   0.188   0.170   0.175   0.171   0.212   0.154   0.171   0.138   0.128   0.131   0.155   0.183   0.237   0.214   0.183   0.209   0.243   0.129   0.203   0.260   0.284   0.218   0.171   0.191   0.133   0.175   0.130   0.162   0.168   0.203   0.169   0.197   0.136   0.191   0.131   0.195   0.146   0.196   0.186   0.108   0.188   0.174   0.127   0.185   0.153   0.157   0.218   0.132   0.177   0.157   0.123   0.172   0.120   0.127   0.132   0.161   0.147   0.211   0.137   0.125   0.176   0.180   0.194   0.142   0.174   0.218   0.198   0.202   0.182   0.196   0.113   0.151   0.194   0.199   0.117
    51.00    0.247   0.255   0.149   0.153   0.151   0.153   0.158   0.191   0.260   0.275   0.199   0.129   0.173   0.163   0.165   0.208   0.262   0.251   0.211   0.151   0.217   0.139   0.164   0.146   0.212   0.145   0.151   0.158   0.160   0.176   0.117   0.181   0.228   0.121   0.173   0.252   0.267   0.142   0.238   0.142   0.271   0.282   0.269   0.128   0.165   0.120   0.150   0.168   0.240   0.262   0.228   0.215   0.247   0.134   0.156   0.148   0.160   0.195   0.192   0.236   0.167   0.136   0.187   0.151   0.139   0.233   0.169   0.211   0.177   0.216   0.221   0.222   0.128   0.168   0.145   0.200   0.119   0.205   0.228   0.258   0.140   0.231   0.170   0.192   0.221   0.139   0.186   0.138   0.138   0.145   0.173
    46.00    0.214   0.267   0.201   0.129   0.186   0.115   0.133   0.162   0.178   0.222   0.123   0.176   0.132   0.184   0.142   0.130   0.180   0.222   0.241   0.159   0.176   0.183   0.156   0.196   0.149   0.117   0.133   0.179   0.201   0.169   0.204   0.235   0.201   0.143   0.202   0.240   0.214   0.126   0.184   0.241   0.284   0.284   0.222   0.216   0.135   0.233   0.131   0.201   0.201   0.192   0.163   0.173   0.187   0.222   0.208   0.149   0.209   0.170   0.158   0.201   0.153   0.160   0.155   0.179   0.214   0.228   0.202   0.172   0.194   0.254   0.259   0.114   0.180   0.158   0.187   0.178   0.229   0.211   0.146   0.185   0.176   0.224   0.260   0.210   0.162   0.163   0.143   0.138   0.191   0.145   0.192
    41.00    0.193   0.254   0.227   0.206   0.195   0.172   0.126   0.206   0.178   0.149   0.168   0.144   0.151   0.153   0.168   0.207   0.211   0.183   0.183   0.141   0.165   0.181   0.196   0.281   0.244   0.223   0.147   0.157   0.156   0.162   0.168   0.132   0.146   0.165   0.258   0.264   0.255   0.190   0.135   0.166   0.216   0.213   0.177   0.199   0.162   0.214   0.261   0.170   0.215   0.118   0.158   0.171   0.210   0.230   0.163   0.122   0.167   0.147   0.154   0.150   0.225   0.139   0.157   0.189   0.135   0.190   0.228   0.122   0.167   0.217   0.211   0.153   0.175   0.164   0.184   0.157   0.188   0.187   0.148   0.112   0.167   0.123   0.215   0.196   0.261   0.137   0.181   0.170   0.238   0.131   0.152
    36.00    0.193   0.215   0.195   0.125   0.160   0.138   0.129   0.135   0.173   0.179   0.185   0.160   0.162   0.197   0.167   0.210   0.259   0.169   0.146   0.211   0.159   0.216   0.182   0.225   0.222   0.166   0.158   0.154   0.140   0.167   0.162   0.160   0.208   0.170   0.177   0.227   0.209   0.191   0.159   0.188   0.139   0.201   0.213   0.253   0.224   0.179   0.190   0.194   0.218   0.145   0.174   0.146   0.216   0.222   0.227   0.137   0.155   0.172   0.172   0.167   0.190   0.215   0.198   0.147   0.166   0.178   0.221   0.213   0.133   0.193   0.184   0.148   0.170   0.154   0.197   0.142   0.129   0.141   0.139   0.180   0.194   0.163   0.180   0.166   0.240   0.293   0.262   0.230   0.216   0.132   0.140
    31.00    0.138   0.192   0.119   0.177   0.152   0.149   0.199   0.186   0.139   0.161   0.167   0.154   0.209   0.144   0.186   0.199   0.155   0.203   0.219   0.223   0.192   0.188   0.135   0.155   0.195   0.135   0.159   0.180   0.119   0.140   0.173   0.153   0.166   0.220   0.136   0.167   0.207   0.162   0.181   0.145   0.227   0.189   0.237   0.222   0.233   0.220   0.215   0.194   0.161   0.129   0.163   0.111   0.155   0.194   0.118   0.188   0.201   0.138   0.150   0.213   0.254   0.208   0.210   0.171   0.194   0.157   0.197   0.169   0.235   0.158   0.173   0.125   0.168   0.162   0.144   0.198   0.220   0.167   0.149   0.130   0.189   0.198   0.161   0.124   0.191   0.263   0.258   0.153   0.183   0.156   0.144
    26.00    0.175   0.130   0.142   0.158   0.152   0.139   0.177   0.170   0.182   0.222   0.235   0.136   0.212   0.226   0.215   0.182   0.162   0.151   0.217   0.195   0.135   0.126   0.151   0.175   0.228   0.163   0.194   0.174   0.198   0.138   0.165   0.164   0.145   0.173   0.162   0.182   0.167   0.180   0.140   0.206   0.283   0.241   0.205   0.151   0.157   0.193   0.141   0.167   0.160   0.182   0.143   0.148   0.212   0.168   0.141   0.179   0.199   0.119   0.206   0.177   0.189   0.217   0.263   0.237   0.207   0.147   0.172   0.149   0.212   0.180   0.123   0.171   0.192   0.140   0.203   0.218   0.130   0.194   0.239   0.211   0.222   0.170   0.141   0.169   0.166   0.222   0.232   0.195   0.135   0.131   0.153
    21.00    0.112   0.155   0.252   0.202   0.142   0.148   0.116   0.126   0.167   0.148   0.206   0.165   0.190   0.232   0.207   0.166   0.149   0.187   0.255   0.188   0.167   0.173   0.211   0.155   0.230   0.233   0.165   0.216   0.132   0.154   0.156   0.168   0.172   0.224   0.133   0.189   0.179   0.182   0.178   0.229   0.276   0.166   0.127   0.128   0.182   0.215   0.133   0.166   0.160   0.139   0.147   0.154   0.177   0.170   0.229   0.127   0.151   0.176   0.172   0.195   0.142   0.170   0.183   0.166   0.143   0.171   0.177   0.143   0.172   0.184   0.222   0.181   0.157   0.153   0.164   0.116   0.195   0.107   0.206   0.147   0.142   0.192   0.199   0.149   0.175   0.206   0.182   0.154   0.186   0.137   0.141
    16.00    0.231   0.285   0.262   0.305   0.291   0.208   0.195   0.234   0.150   0.170   0.181   0.225   0.171   0.168   0.160   0.196   0.107   0.181   0.208   0.209   0.110   0.136   0.154   0.161   0.230   0.230   0.141   0.167   0.163   0.193   0.147   0.141   0.188   0.231   0.243   0.173   0.166   0.159   0.135   0.166   0.192   0.221   0.146   0.184   0.194   0.162   0.169   0.145   0.151   0.128   0.191   0.177   0.156   0.161   0.166   0.206   0.122   0.144   0.140   0.196   0.279   0.252   0.137   0.120   0.202   0.189   0.152   0.193   0.137   0.127   0.198   0.196   0.203   0.205   0.232   0.218   0.188   0.244   0.137   0.185   0.176   0.240   0.274   0.220   0.216   0.195   0.156   0.145   0.149   0.146   0.174
    11.00    0.189   0.240   0.276   0.275   0.263   0.144   0.140   0.200   0.214   0.147   0.163   0.231   0.194   0.100   0.148   0.203   0.214   0.134   0.182   0.243   0.119   0.183   0.214   0.136   0.177   0.147   0.129   0.133   0.156   0.181   0.190   0.127   0.158   0.208   0.216   0.110   0.133   0.166   0.138   0.165   0.150   0.161   0.248   0.202   0.139   0.157   0.127   0.153   0.171   0.219   0.163   0.232   0.107   0.146   0.144   0.162   0.152   0.164   0.173   0.232   0.252   0.271   0.214   0.175   0.178   0.228   0.132   0.200   0.149   0.160   0.172   0.167   0.151   0.170   0.242   0.232   0.269   0.218   0.138   0.170   0.184   0.181   0.219   0.193   0.141   0.158   0.120   0.187   0.154   0.156   0.142
     6.00    0.192   0.183   0.226   0.245   0.200   0.142   0.177   0.204   0.137   0.192   0.259   0.206   0.175   0.208   0.173   0.231   0.126   0.190   0.181   0.222   0.201   0.139   0.236   0.170   0.134   0.148   0.191   0.200   0.148   0.167   0.166   0.170   0.196   0.134   0.170   0.210   0.168   0.127   0.170   0.146   0.191   0.178   0.208   0.173   0.168   0.183   0.197   0.134   0.160   0.206   0.186   0.200   0.134   0.217   0.109   0.168   0.173   0.182   0.168   0.212   0.142   0.246   0.149   0.133   0.182   0.132   0.193   0.216   0.150   0.200   0.283   0.177   0.226   0.175   0.174   0.244   0.263   0.181   0.179   0.129   0.190   0.214   0.121   0.234   0.168   0.153   0.205   0.218   0.141   0.147   0.157
     1.00    0.184   0.142   0.138   0.196   0.163   0.210   0.231   0.162   0.147   0.157   0.190   0.228   0.137   0.192   0.130   0.192   0.143   0.151   0.174   0.199   0.152   0.193   0.223   0.246   0.225   0.131   0.157   0.203   0.160   0.188   0.171   0.218   0.221   0.173   0.172   0.180   0.123   0.183   0.201   0.138   0.204   0.138   0.188   0.207   0.126   0.170   0.139   0.161   0.163   0.199   0.127   0.175   0.169   0.212   0.230   0.233   0.113   0.167   0.214   0.158   0.203   0.232   0.249   0.262   0.217   0.227   0.180   0.186   0.153   0.183   0.211   0.243   0.188   0.196   0.130   0.171   0.223   0.237   0.162   0.203   0.183   0.216   0.227   0.241   0.255   0.167   0.158   0.163   0.203   0.178   0.171

   Height   Standard deviation at grid points for the v component:
   311.00    0.162   0.171   0.216   0.252   0.159   0.202   0.281   0.324   0.182   0.156   0.220   0.190   0.170   0.188   0.148   0.233   0.263   0.241   0.178   0.158   0.154   0.216   0.228   0.158   0.193   0.180   0.217   0.138   0.170   0.140   0.210   0.199   0.150   0.231   0.164   0.223   0.148   0.175   0.155   0.152   0.147   0.207   0.291   0.146   0.231   0.218   0.219   0.185   0.233   0.133   0.201   0.259   0.257   0.219   0.190   0.166   0.227   0.216   0.178   0.169   0.128   0.212   0.239   0.151   0.200   0.187   0.198   0.206   0.193   0.154   0.200   0.184   0.233   0.207   0.224   0.291   0.179   0.161   0.176   0.176   0.186   0.195   0.182   0.201   0.171   0.196   0.134   0.189   0.184   0.184   0.182
   306.00    0.173   0.189   0.208   0.177   0.166   0.191   0.217   0.234   0.232   0.142   0.220   0.142   0.239   0.175   0.170   0.249   0.242   0.302   0.163   0.223   0.153   0.152   0.165   0.221   0.178   0.168   0.152   0.175   0.158   0.212   0.203   0.138   0.252   0.306   0.193   0.163   0.206   0.176   0.150   0.200   0.143   0.209   0.257   0.242   0.208   0.175   0.157   0.166   0.171   0.225   0.156   0.229   0.229   0.194   0.184   0.130   0.144   0.156   0.174   0.139   0.198   0.178   0.170   0.214   0.156   0.193   0.225   0.136   0.175   0.179   0.213   0.170   0.194   0.182   0.169   0.249   0.279   0.144   0.176   0.155   0.142   0.219   0.136   0.206   0.140   0.170   0.161   0.176   0.225   0.196   0.188
   301.00    0.273   0.180   0.126   0.198   0.178   0.146   0.189   0.159   0.162   0.188   0.187   0.192   0.243   0.256   0.207   0.231   0.264   0.258   0.250   0.242   0.168   0.148   0.152   0.196   0.189   0.162   0.175   0.160   0.185   0.215   0.213   0.179   0.227   0.267   0.269   0.254   0.190   0.216   0.149   0.166   0.194   0.202   0.211   0.196   0.183   0.207   0.171   0.155   0.196   0.151   0.167   0.196   0.152   0.195   0.159   0.188   0.224   0.202   0.204   0.201   0.190   0.135   0.196   0.163   0.143   0.160   0.213   0.220   0.190   0.180   0.182   0.156   0.167   0.159   0.176   0.196   0.232   0.257   0.220   0.158   0.164   0.180   0.201   0.184   0.223   0.175   0.174   0.212   0.195   0.170   0.196
   296.00    0.223   0.279   0.295   0.257   0.227   0.203   0.206   0.188   0.193   0.166   0.151   0.229   0.272   0.189   0.221   0.283   0.273   0.175   0.191   0.221   0.185   0.229   0.110   0.143   0.170   0.184   0.154   0.222   0.271   0.303   0.158   0.174   0.146   0.197   0.239   0.213   0.151   0.207   0.164   0.188   0.140   0.168   0.144   0.150   0.183   0.219   0.178   0.171   0.143   0.222   0.164   0.173   0.243   0.159   0.154   0.144   0.198   0.208   0.196   0.146   0.143   0.202   0.155   0.176   0.229   0.168   0.183   0.162   0.200   0.170   0.172   0.179   0.230   0.206   0.188   0.193   0.174   0.165   0.144   0.181   0.230   0.178   0.158   0.209   0.154   0.180   0.242   0.198   0.137   0.204   0.158
   291.00    0.172   0.242   0.282   0.263   0.177   0.146   0.166   0.208   0.163   0.146   0.175   0.199   0.231   0.193   0.212   0.278   0.211   0.157   0.207   0.208   0.191   0.176   0.216   0.158   0.156   0.204   0.136   0.193   0.257   0.241   0.192   0.196   0.186   0.174   0.205   0.173   0.221   0.272   0.255   0.156   0.159   0.158   0.173   0.152   0.214   0.139   0.142   0.147   0.175   0.164   0.204   0.244   0.177   0.179   0.240   0.200   0.218   0.232   0.176   0.184   0.210   0.182   0.195   0.168   0.157   0.231   0.249   0.158   0.194   0.195   0.145   0.162   0.197   0.233   0.184   0.215   0.135   0.199   0.160   0.184   0.252   0.252   0.145   0.178   0.214   0.169   0.156   0.226   0.258   0.216   0.142
   286.00    0.179   0.188   0.195   0.188   0.163   0.176   0.215   0.218   0.166   0.194   0.172   0.214   0.228   0.176   0.187   0.244   0.259   0.172   0.177   0.167   0.194   0.157   0.153   0.219   0.254   0.169   0.203   0.155   0.204   0.185   0.161   0.201   0.158   0.171   0.189   0.142   0.202   0.181   0.246   0.157   0.225   0.285   0.188   0.176   0.234   0.223   0.196   0.192   0.162   0.239   0.186   0.230   0.133   0.243   0.259   0.210   0.159   0.146   0.151   0.186   0.207   0.279   0.316   0.198   0.172   0.234   0.211   0.202   0.128   0.168   0.198   0.152   0.193   0.210   0.210   0.280   0.146   0.254   0.205   0.146   0.158   0.182   0.218   0.256   0.231   0.249   0.167   0.227   0.147   0.185   0.246
   281.00    0.168   0.192   0.213   0.178   0.202   0.166   0.165   0.150   0.200   0.138   0.177   0.191   0.188   0.190   0.157   0.178   0.199   0.133   0.157   0.198   0.149   0.228   0.182   0.204   0.209   0.167   0.220   0.238   0.168   0.190   0.226   0.194   0.157   0.239   0.202   0.151   0.163   0.169   0.223   0.219   0.218   0.170   0.224   0.254   0.301   0.270   0.128   0.148   0.174   0.240   0.257   0.237   0.205   0.237   0.243   0.255   0.126   0.157   0.163   0.169   0.184   0.194   0.223   0.256   0.184   0.232   0.144   0.227   0.285   0.126   0.221   0.187   0.186   0.139   0.202   0.255   0.244   0.270   0.260   0.124   0.152   0.174   0.188   0.229   0.212   0.181   0.176   0.162   0.243   0.279   0.176
   276.00    0.199   0.157   0.133   0.172   0.177   0.140   0.194   0.198   0.178   0.182   0.138   0.190   0.136   0.145   0.194   0.149   0.234   0.204   0.157   0.203   0.227   0.197   0.180   0.167   0.132   0.180   0.204   0.191   0.196   0.170   0.191   0.208   0.187   0.267   0.218   0.283   0.154   0.211   0.263   0.150   0.153   0.166   0.149   0.202   0.288   0.144   0.140   0.226   0.153   0.189   0.164   0.177   0.154   0.168   0.214   0.152   0.219   0.194   0.185   0.140   0.196   0.126   0.135   0.204   0.212   0.193   0.177   0.195   0.216   0.255   0.239   0.123   0.166   0.250   0.206   0.174   0.159   0.186   0.218   0.247   0.201   0.235   0.134   0.162   0.171   0.168   0.152   0.190   0.174   0.230   0.170
   271.00    0.180   0.175   0.235   0.130   0.190   0.217   0.198   0.150   0.178   0.177   0.166   0.193   0.182   0.191   0.162   0.214   0.240   0.154   0.207   0.189   0.233   0.124   0.173   0.198   0.197   0.188   0.170   0.188   0.159   0.273   0.293   0.187   0.166   0.215   0.255   0.283   0.259   0.138   0.188   0.219   0.285   0.262   0.207   0.175   0.231   0.280   0.207   0.267   0.151   0.173   0.128   0.172   0.171   0.160   0.210   0.248   0.194   0.170   0.220   0.232   0.279   0.136   0.246   0.267   0.262   0.271   0.164   0.140   0.180   0.224   0.173   0.160   0.209   0.241   0.224   0.254   0.235   0.155   0.164   0.178   0.200   0.195   0.198   0.218   0.239   0.218   0.274   0.288   0.170   0.157   0.185
   266.00    0.183   0.159   0.176   0.277   0.253   0.202   0.234   0.162   0.184   0.148   0.163   0.214   0.210   0.140   0.175   0.234   0.193   0.155   0.227   0.294   0.318   0.192   0.147   0.151   0.190   0.139   0.187   0.182   0.217   0.281   0.326   0.365   0.287   0.155   0.152   0.253   0.154   0.256   0.199   0.173   0.257   0.321   0.159   0.122   0.183   0.195   0.172   0.185   0.183   0.185   0.160   0.185   0.213   0.186   0.233   0.214   0.147   0.167   0.190   0.134   0.208   0.206   0.196   0.217   0.254   0.186   0.132   0.218   0.217   0.231   0.156   0.220   0.262   0.245   0.144   0.197   0.262   0.225   0.248   0.203   0.154   0.162   0.187   0.194   0.158   0.188   0.205   0.249   0.184   0.148   0.197
   261.00    0.223   0.185   0.286   0.328   0.269   0.170   0.232   0.289   0.164   0.207   0.170   0.250   0.241   0.247   0.244   0.254   0.235   0.258   0.198   0.267   0.204   0.217   0.244   0.225   0.139   0.200   0.142   0.215   0.181   0.244   0.306   0.270   0.301   0.301   0.220   0.269   0.217   0.231   0.228   0.185   0.232   0.254   0.272   0.169   0.183   0.243   0.169   0.231   0.165   0.152   0.162   0.161   0.182   0.206   0.178   0.209   0.249   0.252   0.133   0.181   0.227   0.193   0.120   0.166   0.181   0.230   0.200   0.224   0.231   0.217   0.137   0.151   0.183   0.183   0.128   0.203   0.207   0.211   0.244   0.170   0.162   0.220   0.164   0.143   0.186   0.152   0.156   0.199   0.176   0.204   0.138
   256.00    0.187   0.158   0.297   0.317   0.160   0.145   0.197   0.196   0.216   0.258   0.261   0.231   0.195   0.198   0.195   0.170   0.162   0.210   0.177   0.211   0.255   0.148   0.178   0.265   0.114   0.141   0.192   0.177   0.216   0.242   0.225   0.268   0.194   0.240   0.135   0.198   0.175   0.218   0.220   0.201   0.197   0.162   0.206   0.208   0.170   0.182   0.241   0.216   0.151   0.196   0.236   0.167   0.191   0.158   0.179   0.201   0.168   0.138   0.185   0.178   0.172   0.189   0.205   0.173   0.147   0.185   0.251   0.167   0.181   0.152   0.170   0.229   0.256   0.170   0.173   0.230   0.150   0.199   0.214   0.210   0.249   0.163   0.205   0.262   0.182   0.140   0.184   0.139   0.177   0.149   0.171
   251.00    0.249   0.204   0.305   0.335   0.292   0.160   0.183   0.198   0.170   0.221   0.224   0.143   0.215   0.225   0.177   0.167   0.169   0.181   0.204   0.166   0.203   0.182   0.201   0.249   0.238   0.164   0.181   0.186   0.164   0.171   0.174   0.171   0.209   0.192   0.217   0.212   0.183   0.211   0.143   0.183   0.154   0.158   0.163   0.181   0.211   0.155   0.180   0.199   0.147   0.178   0.170   0.188   0.199   0.184   0.152   0.217   0.261   0.238   0.149   0.163   0.194   0.198   0.183   0.177   0.225   0.176   0.170   0.202   0.161   0.220   0.179   0.199   0.266   0.262   0.155   0.232   0.228   0.168   0.155   0.247   0.281   0.204   0.142   0.167   0.208   0.189   0.166   0.179   0.167   0.195   0.144
   246.00    0.227   0.175   0.311   0.331   0.202   0.178   0.184   0.188   0.162   0.165   0.184   0.183   0.233   0.217   0.191   0.161   0.141   0.241   0.214   0.150   0.163   0.184   0.159   0.163   0.161   0.187   0.159   0.248   0.126   0.188   0.126   0.177   0.144   0.218   0.178   0.174   0.246   0.291   0.230   0.169   0.171   0.148   0.237   0.169   0.295   0.192   0.126   0.186   0.138   0.232   0.138   0.189   0.160   0.201   0.234   0.209   0.226   0.175   0.219   0.152   0.219   0.162   0.201   0.199   0.172   0.196   0.167   0.215   0.210   0.225   0.189   0.211   0.215   0.202   0.249   0.305   0.175   0.149   0.228   0.248   0.196   0.207   0.198   0.203   0.234   0.141   0.185   0.133   0.231   0.248   0.249
   241.00    0.296   0.336   0.346   0.302   0.266   0.144   0.164   0.144   0.173   0.173   0.181   0.219   0.153   0.221   0.158   0.176   0.195   0.240   0.198   0.251   0.182   0.147   0.184   0.143   0.212   0.148   0.179   0.235   0.218   0.167   0.233   0.258   0.231   0.123   0.210   0.188   0.217   0.192   0.218   0.148   0.193   0.158   0.203   0.266   0.324   0.266   0.252   0.149   0.206   0.253   0.141   0.217   0.259   0.154   0.179   0.231   0.216   0.182   0.209   0.142   0.199   0.156   0.154   0.195   0.165   0.194   0.171   0.171   0.231   0.206   0.182   0.142   0.184   0.153   0.228   0.276   0.281   0.169   0.212   0.202   0.238   0.265   0.170   0.218   0.177   0.203   0.144   0.199   0.224   0.184   0.184
   236.00    0.266   0.308   0.320   0.237   0.267   0.273   0.142   0.166   0.139   0.182   0.188   0.226   0.234   0.233   0.129   0.180   0.138   0.201   0.167   0.210   0.141   0.237   0.174   0.167   0.211   0.172   0.172   0.230   0.211   0.139   0.198   0.198   0.202   0.169   0.159   0.208   0.217   0.178   0.153   0.197   0.185   0.173   0.201   0.246   0.274   0.295   0.148   0.183   0.172   0.209   0.196   0.219   0.223   0.239   0.232   0.211   0.146   0.220   0.229   0.209   0.212   0.248   0.258   0.218   0.149   0.196   0.197   0.157   0.226   0.234   0.293   0.226   0.222   0.191   0.204   0.259   0.233   0.186   0.235   0.200   0.229   0.213   0.150   0.213   0.251   0.222   0.210   0.225   0.241   0.136   0.183
   231.00    0.202   0.268   0.301   0.231   0.191   0.213   0.268   0.145   0.246   0.150   0.177   0.262   0.198   0.148   0.235   0.231   0.271   0.174   0.129   0.159   0.258   0.294   0.305   0.162   0.150   0.193   0.202   0.164   0.188   0.198   0.169   0.162   0.170   0.179   0.154   0.173   0.215   0.200   0.201   0.181   0.194   0.158   0.162   0.259   0.233   0.256   0.269   0.127   0.153   0.152   0.154   0.191   0.191   0.194   0.156   0.206   0.231   0.239   0.226   0.129   0.260   0.310   0.231   0.146   0.164   0.185   0.180   0.152   0.174   0.194   0.228   0.227   0.179   0.187   0.249   0.273   0.182   0.193   0.216   0.251   0.211   0.200   0.157   0.174   0.175   0.172   0.212   0.229   0.173   0.159   0.174
   226.00    0.209   0.219   0.225   0.223   0.154   0.170   0.202   0.241   0.243   0.169   0.236   0.304   0.192   0.262   0.220   0.280   0.285   0.185   0.255   0.296   0.253   0.221   0.196   0.226   0.183   0.155   0.193   0.137   0.194   0.193   0.186   0.139   0.173   0.195   0.175   0.223   0.161   0.212   0.147   0.148   0.181   0.158   0.172   0.225   0.312   0.259   0.289   0.165   0.150   0.238   0.258   0.152   0.191   0.204   0.193   0.196   0.185   0.247   0.125   0.188   0.250   0.306   0.162   0.126   0.189   0.230   0.226   0.176   0.225   0.124   0.147   0.152   0.169   0.184   0.178   0.203   0.202   0.172   0.212   0.153   0.186   0.160   0.221   0.167   0.265   0.269   0.237   0.201   0.159   0.134   0.163
   221.00    0.261   0.144   0.130   0.203   0.256   0.233   0.175   0.202   0.220   0.218   0.257   0.309   0.181   0.182   0.250   0.262   0.288   0.284   0.243   0.229   0.199   0.219   0.164   0.225   0.116   0.160   0.190   0.194   0.237   0.165   0.197   0.221   0.112   0.164   0.173   0.273   0.183   0.125   0.193   0.274   0.306   0.248   0.279   0.240   0.282   0.258   0.258   0.215   0.282   0.252   0.193   0.169   0.211   0.165   0.158   0.167   0.182   0.206   0.179   0.197   0.283   0.300   0.254   0.248   0.233   0.191   0.186   0.192   0.186   0.166   0.204   0.260   0.129   0.165   0.205   0.136   0.214   0.214   0.230   0.124   0.196   0.181   0.188   0.246   0.317   0.216   0.145   0.178   0.165   0.227   0.170
   216.00    0.264   0.284   0.178   0.221   0.228   0.175   0.211   0.201   0.208   0.234   0.257   0.294   0.198   0.164   0.172   0.244   0.251   0.214   0.158   0.167   0.139   0.143   0.182   0.157   0.202   0.189   0.224   0.236   0.209   0.217   0.214   0.205   0.243   0.201   0.193   0.294   0.245   0.222   0.179   0.200   0.248   0.247   0.214   0.217   0.202   0.239   0.219   0.189   0.254   0.191   0.143   0.153   0.188   0.146   0.196   0.143   0.184   0.174   0.125   0.154   0.243   0.259   0.131   0.157   0.145   0.184   0.147   0.231   0.125   0.197   0.221   0.217   0.235   0.197   0.273   0.270   0.216   0.162   0.180   0.228   0.209   0.179   0.211   0.172   0.259   0.244   0.201   0.166   0.192   0.146   0.180
   211.00    0.211   0.269   0.283   0.153   0.193   0.157   0.160   0.166   0.186   0.211   0.202   0.229   0.281   0.214   0.169   0.223   0.220   0.131   0.159   0.190   0.162   0.160   0.171   0.198   0.128   0.162   0.203   0.135   0.174   0.161   0.206   0.147   0.222   0.263   0.243   0.278   0.222   0.129   0.194   0.239   0.154   0.234   0.180   0.161   0.236   0.269   0.148   0.183   0.185   0.215   0.202   0.209   0.172   0.273   0.268   0.150   0.151   0.151   0.206   0.238   0.178   0.249   0.204   0.233   0.245   0.173   0.200   0.180   0.186   0.174   0.204   0.200   0.218   0.167   0.245   0.262   0.210   0.187   0.182   0.170   0.177   0.145   0.199   0.235   0.259   0.178   0.197   0.230   0.185   0.178   0.177
   206.00    0.157   0.212   0.242   0.157   0.180   0.165   0.166   0.190   0.137   0.165   0.204   0.167   0.239   0.175   0.195   0.210   0.158   0.213   0.177   0.155   0.197   0.125   0.213   0.151   0.212   0.195   0.214   0.229   0.161   0.197   0.206   0.167   0.237   0.250   0.178   0.234   0.231   0.210   0.161   0.177   0.137   0.169   0.166   0.181   0.164   0.221   0.217   0.172   0.150   0.156   0.182   0.208   0.175   0.251   0.234   0.239   0.227   0.152   0.239   0.201   0.176   0.226   0.223   0.131   0.195   0.161   0.168   0.167   0.185   0.136   0.153   0.216   0.235   0.131   0.177   0.215   0.211   0.193   0.256   0.182   0.199   0.186   0.212   0.167   0.205   0.186   0.179   0.201   0.157   0.234   0.167
   201.00    0.224   0.212   0.282   0.290   0.179   0.157   0.208   0.136   0.167   0.159   0.187   0.211   0.204   0.285   0.217   0.178   0.195   0.175   0.196   0.216   0.152   0.180   0.137   0.183   0.202   0.174   0.140   0.172   0.132   0.206   0.241   0.254   0.209   0.196   0.244   0.183   0.165   0.193   0.155   0.174   0.166   0.181   0.188   0.175   0.137   0.182   0.182   0.154   0.131   0.196   0.163   0.142   0.201   0.183   0.265   0.261   0.147   0.234   0.214   0.205   0.167   0.220   0.220   0.182   0.229   0.151   0.187   0.169   0.191   0.171   0.209   0.149   0.164   0.171   0.191   0.163   0.167   0.196   0.275   0.301   0.131   0.243   0.276   0.156   0.179   0.124   0.180   0.242   0.261   0.265   0.258
   196.00    0.208   0.223   0.167   0.260   0.128   0.159   0.198   0.176   0.192   0.162   0.219   0.146   0.221   0.266   0.190   0.188   0.202   0.154   0.175   0.313   0.176   0.133   0.194   0.160   0.147   0.148   0.213   0.165   0.158   0.208   0.229   0.220   0.220   0.163   0.190   0.169   0.214   0.247   0.209   0.166   0.190   0.164   0.135   0.252   0.145   0.248   0.245   0.208   0.206   0.198   0.244   0.262   0.119   0.219   0.273   0.280   0.248   0.191   0.219   0.178   0.190   0.269   0.158   0.255   0.229   0.140   0.168   0.171   0.140   0.192   0.188   0.229   0.162   0.166   0.194   0.193   0.184   0.212   0.218   0.234   0.199   0.192   0.235   0.218   0.176   0.237   0.151   0.170   0.203   0.238   0.247
   191.00    0.157   0.212   0.273   0.218   0.206   0.185   0.155   0.155   0.186   0.209   0.205   0.199   0.192   0.231   0.177   0.174   0.175   0.208   0.275   0.332   0.349   0.157   0.220   0.244   0.208   0.205   0.187   0.176   0.147   0.194   0.211   0.147   0.187   0.172   0.139   0.214   0.165   0.191   0.148   0.155   0.199   0.152   0.245   0.261   0.316   0.245   0.136   0.221   0.178   0.159   0.169   0.211   0.196   0.222   0.174   0.226   0.164   0.221   0.184   0.159   0.202   0.207   0.265   0.270   0.154   0.143   0.257   0.158   0.207   0.168   0.176   0.174   0.161   0.174   0.151   0.191   0.242   0.197   0.138   0.155   0.152   0.143   0.241   0.202   0.153   0.194   0.159   0.197   0.144   0.201   0.155
   186.00    0.169   0.188   0.191   0.231   0.144   0.153   0.188   0.172   0.204   0.181   0.186   0.131   0.164   0.231   0.160   0.165   0.181   0.186   0.178   0.246   0.276   0.250   0.196   0.255   0.283   0.212   0.205   0.179   0.153   0.200   0.206   0.138   0.205   0.277   0.261   0.265   0.136   0.176   0.191   0.171   0.193   0.169   0.266   0.153   0.228   0.287   0.270   0.248   0.136   0.134   0.160   0.183   0.200   0.204   0.153   0.213   0.291   0.174   0.163   0.210   0.193   0.147   0.206   0.221   0.149   0.247   0.280   0.198   0.213   0.152   0.192   0.160   0.202   0.165   0.169   0.141   0.168   0.183   0.200   0.162   0.153   0.198   0.256   0.285   0.139   0.153   0.142   0.158   0.217   0.147   0.218
   181.00    0.223   0.249   0.167   0.169   0.202   0.204   0.191   0.139   0.171   0.196   0.182   0.203   0.196   0.255   0.194   0.165   0.194   0.204   0.166   0.191   0.221   0.233   0.128   0.176   0.241   0.237   0.192   0.161   0.194   0.167   0.214   0.213   0.144   0.191   0.241   0.213   0.152   0.178   0.184   0.169   0.182   0.202   0.236   0.219   0.202   0.231   0.240   0.210   0.178   0.197   0.196   0.153   0.221   0.161   0.164   0.207   0.249   0.167   0.198   0.167   0.174   0.194   0.161   0.196   0.254   0.232   0.314   0.217   0.165   0.156   0.160   0.223   0.165   0.170   0.232   0.209   0.204   0.148   0.155   0.204   0.181   0.194   0.255   0.190   0.281   0.205   0.190   0.219   0.216   0.140   0.181
   176.00    0.280   0.201   0.185   0.236   0.173   0.204   0.224   0.191   0.122   0.133   0.220   0.198   0.194   0.140   0.216   0.257   0.162   0.154   0.214   0.252   0.176   0.189   0.221   0.191   0.242   0.164   0.219   0.197   0.140   0.241   0.224   0.179   0.151   0.154   0.189   0.257   0.224   0.207   0.149   0.176   0.156   0.203   0.244   0.188   0.275   0.255   0.156   0.173   0.172   0.183   0.203   0.263   0.192   0.192   0.180   0.215   0.232   0.166   0.167   0.208   0.220   0.163   0.157   0.188   0.204   0.251   0.259   0.291   0.234   0.185   0.194   0.191   0.190   0.218   0.194   0.163   0.196   0.216   0.165   0.246   0.152   0.199   0.248   0.228   0.285   0.215   0.151   0.203   0.151   0.182   0.202
[...]
   126.00    0.178   0.136   0.145   0.147   0.183   0.240   0.158   0.223   0.125   0.164   0.165   0.135   0.132   0.153   0.141   0.199   0.188   0.130   0.142   0.159   0.158   0.172   0.199   0.172   0.164   0.190   0.130   0.130   0.158   0.164   0.182   0.196   0.143   0.140   0.160   0.145   0.146   0.196   0.129   0.176   0.158   0.136   0.177   0.119   0.147   0.186   0.185   0.202   0.225   0.140   0.152   0.146   0.178   0.161   0.160   0.170   0.211   0.187   0.187   0.163   0.154   0.134   0.150   0.148   0.167   0.193   0.204   0.158   0.203   0.108   0.176   0.140   0.203   0.222   0.176   0.149   0.161   0.141   0.156   0.123   0.188   0.154   0.157   0.145   0.137   0.162   0.153   0.173   0.119   0.154   0.194
   121.00    0.196   0.137   0.172   0.150   0.169   0.218   0.220   0.229   0.145   0.142   0.125   0.168   0.204   0.125   0.125   0.155   0.173   0.194   0.119   0.170   0.131   0.183   0.138   0.184   0.185   0.189   0.170   0.158   0.184   0.126   0.192   0.165   0.156   0.154   0.186   0.165   0.195   0.205   0.197   0.200   0.116   0.206   0.159   0.155   0.132   0.167   0.132   0.125   0.152   0.153   0.141   0.139   0.128   0.162   0.186   0.162   0.195   0.168   0.157   0.130   0.186   0.135   0.174   0.169   0.193   0.174   0.173   0.128   0.159   0.196   0.182   0.133   0.149   0.159   0.152   0.160   0.195   0.141   0.168   0.136   0.174   0.137   0.165   0.140   0.150   0.164   0.106   0.135   0.157   0.120   0.192
   116.00    0.180   0.172   0.201   0.157   0.130   0.174   0.162   0.196   0.181   0.132   0.156   0.118   0.165   0.185   0.213   0.169   0.129   0.165   0.213   0.148   0.164   0.161   0.205   0.121   0.156   0.186   0.181   0.152   0.161   0.169   0.175   0.138   0.152   0.146   0.145   0.126   0.163   0.142   0.150   0.153   0.172   0.182   0.195   0.176   0.143   0.202   0.114   0.131   0.121   0.137   0.161   0.128   0.161   0.211   0.204   0.146   0.153   0.148   0.153   0.165   0.131   0.197   0.196   0.147   0.162   0.138   0.143   0.159   0.165   0.157   0.187   0.140   0.114   0.153   0.108   0.124   0.140   0.154   0.171   0.134   0.149   0.143   0.169   0.159   0.171   0.168   0.207   0.168   0.125   0.165   0.189
   111.00    0.170   0.143   0.161   0.184   0.206   0.155   0.150   0.150   0.192   0.176   0.135   0.150   0.151   0.150   0.165   0.170   0.160   0.142   0.159   0.204   0.139   0.179   0.157   0.125   0.144   0.188   0.141   0.113   0.183   0.138   0.129   0.127   0.130   0.136   0.135   0.141   0.133   0.154   0.144   0.149   0.164   0.169   0.146   0.153   0.160   0.168   0.206   0.191   0.203   0.157   0.194   0.150   0.147   0.188   0.234   0.179   0.155   0.180   0.143   0.150   0.131   0.139   0.147   0.128   0.147   0.149   0.156   0.152   0.166   0.141   0.129   0.155   0.138   0.177   0.208   0.191   0.186   0.198   0.163   0.184   0.171   0.150   0.152   0.176   0.176   0.144   0.198   0.143   0.153   0.132   0.137
   106.00    0.152   0.140   0.143   0.198   0.147   0.179   0.182   0.148   0.220   0.193   0.125   0.164   0.132   0.210   0.220   0.192   0.169   0.150   0.177   0.185   0.152   0.178   0.120   0.137   0.162   0.207   0.168   0.201   0.198   0.128   0.160   0.166   0.150   0.168   0.145   0.178   0.151   0.144   0.151   0.154   0.158   0.142   0.166   0.145   0.152   0.133   0.160   0.145   0.162   0.158   0.171   0.214   0.141   0.188   0.213   0.164   0.143   0.180   0.203   0.175   0.171   0.123   0.121   0.159   0.197   0.154   0.132   0.200   0.143   0.167   0.141   0.187   0.173   0.204   0.158   0.144   0.143   0.177   0.119   0.169   0.172   0.134   0.160   0.147   0.150   0.143   0.178   0.228   0.162   0.154   0.159
   101.00    0.174   0.116   0.167   0.219   0.147   0.165   0.155   0.213   0.248   0.184   0.141   0.145   0.147   0.191   0.177   0.138   0.137   0.151   0.157   0.170   0.155   0.188   0.171   0.139   0.176   0.191   0.171   0.144   0.189   0.107   0.139   0.179   0.181   0.199   0.124   0.148   0.158   0.123   0.155   0.191   0.172   0.179   0.108   0.158   0.174   0.161   0.145   0.155   0.167   0.148   0.133   0.189   0.249   0.140   0.183   0.132   0.139   0.153   0.172   0.153   0.195   0.171   0.184   0.146   0.174   0.175   0.159   0.167   0.198   0.138   0.173   0.195   0.188   0.199   0.131   0.158   0.156   0.144   0.159   0.189   0.121   0.126   0.152   0.156   0.161   0.139   0.180   0.169   0.200   0.129   0.134
    96.00    0.166   0.165   0.133   0.168   0.176   0.157   0.147   0.180   0.201   0.243   0.187   0.155   0.199   0.204   0.128   0.142   0.169   0.200   0.242   0.133   0.161   0.143   0.225   0.209   0.126   0.138   0.144   0.134   0.160   0.173   0.168   0.178   0.166   0.135   0.183   0.128   0.144   0.159   0.161   0.193   0.116   0.185   0.191   0.132   0.145   0.139   0.145   0.193   0.147   0.145   0.170   0.210   0.230   0.150   0.160   0.212   0.140   0.196   0.154   0.162   0.124   0.139   0.122   0.166   0.124   0.172   0.179   0.149   0.117   0.183   0.119   0.137   0.197   0.227   0.128   0.135   0.133   0.168   0.204   0.150   0.129   0.158   0.170   0.150   0.147   0.154   0.181   0.134   0.151   0.175   0.156
    91.00    0.158   0.162   0.138   0.118   0.165   0.157   0.168   0.129   0.180   0.191   0.180   0.201   0.211   0.181   0.129   0.139   0.142   0.184   0.219   0.206   0.129   0.161   0.224   0.231   0.201   0.157   0.126   0.185   0.156   0.169   0.171   0.165   0.148   0.211   0.178   0.129   0.160   0.133   0.181   0.180   0.146   0.178   0.188   0.124   0.125   0.173   0.142   0.161   0.200   0.199   0.136   0.161   0.159   0.164   0.208   0.184   0.166   0.187   0.211   0.122   0.135   0.164   0.188   0.138   0.166   0.182   0.121   0.163   0.197   0.215   0.108   0.161   0.203   0.202   0.143   0.206   0.132   0.158   0.170   0.136   0.163   0.134   0.130   0.158   0.123   0.122   0.133   0.187   0.171   0.140   0.173
    86.00    0.160   0.139   0.183   0.136   0.156   0.149   0.178   0.170   0.179   0.135   0.148   0.155   0.201   0.150   0.181   0.138   0.169   0.221   0.203   0.187   0.192   0.199   0.198   0.183   0.150   0.174   0.187   0.169   0.204   0.131   0.161   0.141   0.159   0.205   0.163   0.189   0.129   0.148   0.146   0.158   0.178   0.187   0.149   0.177   0.156   0.208   0.133   0.149   0.156   0.155   0.131   0.137   0.132   0.169   0.204   0.154   0.138   0.158   0.154   0.171   0.168   0.179   0.127   0.132   0.132   0.128   0.175   0.124   0.160   0.182   0.139   0.141   0.165   0.137   0.210   0.239   0.145   0.135   0.129   0.209   0.122   0.157   0.151   0.184   0.138   0.185   0.233   0.197   0.146   0.138   0.139
    81.00    0.141   0.200   0.242   0.153   0.176   0.161   0.167   0.118   0.138   0.124   0.140   0.150   0.192   0.125   0.167   0.200   0.143   0.179   0.149   0.153   0.137   0.205   0.158   0.172   0.143   0.175   0.190   0.142   0.186   0.166   0.225   0.144   0.146   0.171   0.182   0.150   0.162   0.128   0.170   0.154   0.159   0.155   0.216   0.137   0.150   0.185   0.144   0.161   0.131   0.137   0.209   0.256   0.231   0.199   0.210   0.127   0.142   0.174   0.191   0.131   0.173   0.156   0.156   0.188   0.160   0.180   0.148   0.152   0.164   0.147   0.145   0.116   0.130   0.154   0.173   0.225   0.213   0.135   0.191   0.203   0.179   0.155   0.163   0.162   0.161   0.156   0.210   0.175   0.137   0.132   0.143
    76.00    0.167   0.201   0.227   0.181   0.141   0.160   0.187   0.167   0.164   0.134   0.196   0.171   0.177   0.152   0.170   0.184   0.221   0.180   0.191   0.170   0.159   0.142   0.203   0.207   0.134   0.176   0.142   0.119   0.168   0.164   0.186   0.187   0.136   0.132   0.158   0.179   0.120   0.159   0.197   0.165   0.159   0.178   0.180   0.179   0.179   0.177   0.161   0.147   0.166   0.185   0.235   0.262   0.188   0.206   0.143   0.222   0.260   0.210   0.120   0.129   0.168   0.211   0.206   0.137   0.151   0.171   0.116   0.126   0.203   0.123   0.133   0.172   0.223   0.180   0.132   0.175   0.219   0.228   0.156   0.161   0.155   0.133   0.149   0.130   0.158   0.183   0.151   0.188   0.190   0.180   0.145
    71.00    0.130   0.162   0.159   0.154   0.157   0.113   0.143   0.178   0.171   0.186   0.176   0.155   0.153   0.138   0.154   0.181   0.181   0.167   0.168   0.158   0.152   0.232   0.174   0.185   0.120   0.167   0.146   0.207   0.169   0.149   0.168   0.125   0.187   0.156   0.114   0.121   0.162   0.162   0.167   0.171   0.145   0.144   0.146   0.166   0.159   0.171   0.171   0.165   0.188   0.176   0.213   0.209   0.201   0.151   0.175   0.229   0.241   0.244   0.157   0.159   0.197   0.167   0.193   0.174   0.132   0.176   0.162   0.201   0.219   0.215   0.154   0.195   0.244   0.231   0.129   0.147   0.169   0.186   0.163   0.116   0.159   0.126   0.145   0.177   0.161   0.153   0.130   0.149   0.147   0.192   0.130
    66.00    0.187   0.193   0.237   0.128   0.195   0.190   0.162   0.136   0.135   0.149   0.170   0.138   0.134   0.177   0.138   0.153   0.206   0.165   0.135   0.162   0.133   0.188   0.204   0.119   0.175   0.182   0.178   0.183   0.173   0.229   0.231   0.162   0.178   0.210   0.183   0.234   0.173   0.181   0.145   0.150   0.170   0.133   0.165   0.174   0.163   0.163   0.206   0.206   0.157   0.200   0.162   0.162   0.165   0.206   0.228   0.220   0.165   0.201   0.125   0.154   0.178   0.149   0.175   0.133   0.167   0.172   0.130   0.177   0.183   0.171   0.161   0.188   0.175   0.200   0.118   0.168   0.140   0.136   0.138   0.148   0.122   0.146   0.145   0.168   0.183   0.184   0.175   0.230   0.225   0.163   0.156
    61.00    0.224   0.251   0.254   0.168   0.204   0.133   0.137   0.138   0.142   0.156   0.204   0.160   0.141   0.149   0.140   0.185   0.229   0.136   0.176   0.154   0.194   0.135   0.181   0.203   0.202   0.149   0.195   0.151   0.119   0.177   0.192   0.119   0.138   0.201   0.179   0.180   0.162   0.192   0.234   0.150   0.158   0.136   0.178   0.130   0.125   0.146   0.212   0.203   0.212   0.226   0.158   0.155   0.197   0.236   0.210   0.171   0.183   0.170   0.147   0.135   0.177   0.192   0.168   0.137   0.140   0.138   0.176   0.151   0.153   0.145   0.143   0.125   0.191   0.155   0.111   0.150   0.183   0.211   0.200   0.227   0.219   0.168   0.201   0.196   0.148   0.178   0.144   0.178   0.186   0.182   0.164
    56.00    0.209   0.178   0.226   0.218   0.233   0.241   0.127   0.205   0.193   0.184   0.206   0.188   0.179   0.164   0.116   0.171   0.164   0.206   0.233   0.184   0.187   0.143   0.191   0.209   0.186   0.227   0.159   0.223   0.265   0.258   0.191   0.230   0.253   0.223   0.118   0.160   0.155   0.130   0.182   0.237   0.131   0.145   0.184   0.171   0.142   0.191   0.193   0.179   0.189   0.193   0.128   0.120   0.159   0.202   0.175   0.143   0.218   0.170   0.146   0.188   0.170   0.208   0.214   0.214   0.157   0.157   0.146   0.160   0.131   0.160   0.157   0.217   0.211   0.193   0.189   0.176   0.154   0.191   0.185   0.210   0.202   0.135   0.185   0.235   0.152   0.146   0.165   0.160   0.156   0.156   0.154
    51.00    0.200   0.221   0.251   0.186   0.178   0.193   0.183   0.213   0.169   0.153   0.171   0.168   0.151   0.152   0.213   0.242   0.147   0.211   0.174   0.144   0.129   0.178   0.176   0.162   0.156   0.195   0.198   0.239   0.266   0.284   0.255   0.173   0.231   0.229   0.168   0.182   0.149   0.192   0.251   0.253   0.246   0.210   0.165   0.116   0.156   0.166   0.162   0.170   0.185   0.157   0.153   0.167   0.185   0.192   0.133   0.138   0.165   0.212   0.229   0.229   0.136   0.150   0.186   0.199   0.140   0.154   0.180   0.184   0.175   0.195   0.184   0.195   0.210   0.151   0.137   0.157   0.151   0.171   0.150   0.127   0.155   0.130   0.149   0.155   0.180   0.202   0.115   0.163   0.134   0.123   0.190
    46.00    0.158   0.165   0.189   0.190   0.155   0.127   0.162   0.157   0.139   0.163   0.173   0.151   0.119   0.148   0.207   0.225   0.124   0.212   0.197   0.107   0.163   0.194   0.166   0.116   0.152   0.165   0.184   0.208   0.201   0.240   0.222   0.225   0.184   0.205   0.130   0.130   0.135   0.223   0.236   0.235   0.176   0.162   0.186   0.186   0.195   0.143   0.160   0.159   0.172   0.141   0.192   0.116   0.140   0.153   0.167   0.133   0.149   0.201   0.146   0.186   0.205   0.148   0.181   0.145   0.163   0.184   0.111   0.172   0.126   0.159   0.151   0.178   0.152   0.135   0.189   0.147   0.191   0.197   0.114   0.196   0.125   0.132   0.162   0.178   0.171   0.140   0.141   0.181   0.176   0.196   0.176
    41.00    0.160   0.186   0.150   0.134   0.140   0.169   0.171   0.156   0.129   0.144   0.125   0.174   0.205   0.192   0.173   0.185   0.168   0.213   0.208   0.170   0.119   0.192   0.125   0.207   0.134   0.128   0.185   0.187   0.196   0.230   0.148   0.167   0.170   0.195   0.161   0.156   0.169   0.187   0.226   0.184   0.152   0.163   0.174   0.140   0.178   0.128   0.146   0.194   0.127   0.159   0.139   0.192   0.242   0.179   0.191   0.158   0.133   0.149   0.187   0.203   0.228   0.138   0.183   0.189   0.180   0.151   0.158   0.180   0.142   0.221   0.140   0.146   0.128   0.200   0.212   0.135   0.164   0.159   0.146   0.168   0.180   0.198   0.125   0.167   0.195   0.171   0.147   0.181   0.135   0.165   0.173
    36.00    0.217   0.155   0.151   0.190   0.186   0.162   0.163   0.122   0.172   0.158   0.215   0.164   0.221   0.170   0.175   0.144   0.154   0.152   0.163   0.198   0.150   0.178   0.223   0.254   0.196   0.143   0.194   0.161   0.181   0.193   0.182   0.194   0.237   0.200   0.236   0.110   0.153   0.183   0.181   0.223   0.246   0.116   0.150   0.178   0.160   0.158   0.131   0.179   0.166   0.124   0.178   0.231   0.238   0.162   0.160   0.150   0.184   0.114   0.140   0.151   0.196   0.207   0.142   0.175   0.137   0.148   0.174   0.159   0.214   0.230   0.172   0.159   0.155   0.192   0.240   0.181   0.135   0.145   0.155   0.178   0.120   0.167   0.141   0.154   0.151   0.171   0.236   0.149   0.115   0.174   0.134
    31.00    0.189   0.200   0.171   0.160   0.161   0.159   0.146   0.167   0.197   0.216   0.236   0.226   0.232   0.190   0.187   0.113   0.156   0.129   0.136   0.163   0.129   0.156   0.159   0.204   0.207   0.203   0.194   0.194   0.164   0.186   0.136   0.177   0.182   0.173   0.189   0.222   0.146   0.172   0.164   0.203   0.231   0.136   0.139   0.134   0.133   0.146   0.142   0.149   0.158   0.165   0.149   0.222   0.198   0.201   0.108   0.138   0.174   0.139   0.178   0.210   0.148   0.189   0.215   0.135   0.180   0.151   0.227   0.218   0.200   0.199   0.120   0.152   0.152   0.220   0.218   0.179   0.143   0.146   0.204   0.190   0.197   0.155   0.181   0.129   0.177   0.186   0.194   0.193   0.178   0.188   0.127
    26.00    0.139   0.136   0.188   0.185   0.142   0.145   0.140   0.126   0.152   0.180   0.215   0.222   0.194   0.123   0.187   0.151   0.159   0.147   0.178   0.123   0.138   0.137   0.143   0.156   0.138   0.208   0.173   0.145   0.142   0.141   0.171   0.161   0.170   0.155   0.131   0.137   0.191   0.137   0.134   0.165   0.150   0.186   0.173   0.159   0.151   0.150   0.133   0.134   0.140   0.147   0.188   0.179   0.182   0.179   0.138   0.144   0.173   0.171   0.131   0.139   0.165   0.179   0.194   0.176   0.120   0.141   0.195   0.210   0.170   0.135   0.156   0.125   0.167   0.226   0.132   0.180   0.141   0.160   0.160   0.159   0.212   0.202   0.212   0.144   0.158   0.156   0.153   0.190   0.139   0.136   0.147
    21.00    0.154   0.149   0.148   0.171   0.153   0.169   0.176   0.171   0.149   0.169   0.138   0.142   0.139   0.150   0.158   0.171   0.146   0.178   0.179   0.142   0.162   0.162   0.143   0.193   0.182   0.257   0.153   0.130   0.131   0.172   0.126   0.178   0.175   0.135   0.174   0.148   0.160   0.155   0.153   0.184   0.196   0.136   0.132   0.162   0.114   0.135   0.134   0.145   0.131   0.135   0.166   0.159   0.179   0.220   0.115   0.123   0.152   0.149   0.186   0.197   0.120   0.117   0.138   0.118   0.145   0.213   0.273   0.136   0.180   0.146   0.197   0.217   0.130   0.192   0.192   0.153   0.155   0.149   0.135   0.141   0.169   0.167   0.200   0.198   0.163   0.140   0.143   0.185   0.150   0.155   0.146
    16.00    0.137   0.150   0.114   0.138   0.142   0.138   0.120   0.145   0.196   0.222   0.154   0.197   0.211   0.158   0.142   0.155   0.165   0.144   0.197   0.246   0.163   0.125   0.172   0.118   0.216   0.222   0.249   0.235   0.205   0.189   0.153   0.159   0.189   0.138   0.145   0.155   0.146   0.138   0.162   0.162   0.141   0.164   0.149   0.187   0.229   0.122   0.132   0.148   0.194   0.161   0.186   0.173   0.214   0.222   0.188   0.177   0.115   0.144   0.145   0.154   0.170   0.186   0.212   0.142   0.127   0.194   0.244   0.242   0.190   0.175   0.160   0.155   0.195   0.139   0.138   0.157   0.147   0.165   0.124   0.177   0.184   0.155   0.166   0.168   0.175   0.131   0.155   0.157   0.139   0.132   0.138
    11.00    0.206   0.178   0.147   0.163   0.172   0.162   0.210   0.192   0.197   0.253   0.228   0.187   0.137   0.124   0.175   0.180   0.169   0.119   0.154   0.207   0.224   0.201   0.210   0.188   0.196   0.210   0.216   0.178   0.160   0.127   0.149   0.129   0.134   0.145   0.151   0.176   0.203   0.128   0.144   0.151   0.148   0.147   0.142   0.185   0.209   0.164   0.213   0.204   0.172   0.132   0.167   0.121   0.207   0.214   0.193   0.139   0.170   0.134   0.140   0.154   0.170   0.214   0.167   0.197   0.158   0.174   0.202   0.204   0.148   0.136   0.127   0.147   0.149   0.176   0.150   0.152   0.152   0.190   0.147   0.176   0.129   0.133   0.154   0.128   0.145   0.148   0.170   0.158   0.140   0.185   0.141
     6.00    0.189   0.154   0.133   0.148   0.159   0.189   0.198   0.126   0.172   0.225   0.235   0.218   0.208   0.124   0.174   0.158   0.173   0.138   0.167   0.187   0.176   0.147   0.181   0.163   0.135   0.148   0.137   0.199   0.117   0.128   0.166   0.145   0.160   0.162   0.202   0.137   0.176   0.161   0.148   0.158   0.134   0.144   0.149   0.134   0.176   0.187   0.167   0.201   0.139   0.162   0.131   0.145   0.174   0.181   0.187   0.155   0.147   0.160   0.142   0.149   0.219   0.196   0.219   0.161   0.133   0.160   0.155   0.188   0.142   0.142   0.202   0.150   0.117   0.143   0.146   0.154   0.176   0.141   0.163   0.140   0.198   0.188   0.140   0.168   0.132   0.178   0.199   0.120   0.145   0.142   0.149
     1.00    0.171   0.129   0.152   0.169   0.137   0.176   0.199   0.205   0.202   0.217   0.141   0.181   0.154   0.194   0.157   0.142   0.169   0.178   0.182   0.162   0.137   0.141   0.183   0.200   0.122   0.151   0.129   0.162   0.182   0.184   0.124   0.160   0.148   0.143   0.143   0.178   0.131   0.144   0.182   0.164   0.203   0.121   0.155   0.200   0.213   0.195   0.140   0.162   0.194   0.137   0.147   0.148   0.142   0.181   0.130   0.180   0.145   0.162   0.128   0.160   0.204   0.212   0.159   0.174   0.191   0.166   0.141   0.155   0.193   0.203   0.203   0.200   0.220   0.146   0.134   0.147   0.175   0.130   0.167   0.125   0.156   0.185   0.118   0.160   0.156   0.154   0.184   0.153   0.138   0.172   0.151

   Mean standard deviation across all grid points:
      u component:    0.180 m/s
      v component:    0.200 m/s
      w component:    0.168 m/s


U-component (X) statistics from the interpolated hub point:

   Mean =   8.9787 m/s
   TI   =   2.2137 %


Processing complete.  75.281 CPU seconds used.
