
This summary file was generated by TurbSim on 28-Jul-2023 at 11:52:39.


Runtime Options:

     64161  Random seed #1
    RANLUX  Type of random number generator
         F  Output binary HH turbulence parameters?
         F  Output formatted turbulence parameters?
         F  Output AeroDyn HH files?
         T  Output AeroDyn FF files?
         F  Output BLADED FF files?
         F  Output tower data?
         F  Output formatted FF files?
         F  Output coherent turbulence time step file?
         T  Clockwise rotation when looking downwind?
 0 -  NONE  IEC turbulence models scaled to exact specified standard deviation


Turbine/Model Specifications:

        63  Vertical grid-point matrix dimension
        91  Horizontal grid-point matrix dimension
     0.500  Time step [seconds]
    10.000  Analysis time [seconds]
    10.000  Usable output time [seconds]
   156.000  Hub height [m]
   310.000  Grid height [m]
   450.000  Grid width [m]
     0.000  Vertical flow angle [degrees]
     0.000  Horizontal flow angle [degrees]


Meteorological Boundary Conditions:

    TIMESR  User-input time series spectral model
       N/A  IEC standard
       N/A  IEC turbulence characteristic
       N/A  IEC turbulence type
       N/A  IEC Extreme Turbulence Model (ETM) "c" parameter [m/s]
       PL   Wind profile type
    87.600  Reference height [m]
     8.000  Reference wind speed [m/s]
       N/A  Jet height [m]
     0.200  Power law exponent
     0.030  Surface roughness length [m]


Non-IEC Meteorological Boundary Conditions:

    45.000  Site latitude [degrees]
     0.050  Gradient Richardson number
     0.385  Friction or shear velocity [m/s]
       N/A  Mixing layer depth [m]
       N/A  Mean hub u'w' Reynolds stress
       N/A  Mean hub u'v' Reynolds stress
       N/A  Mean hub v'w' Reynolds stress


Spatial Coherence Models:

       IEC  u-component coherence model
       IEC  v-component coherence model
       IEC  w-component coherence model
(   12.000, 0.353E-03)  u-component coherence parameters
(   12.000, 0.353E-03)  v-component coherence parameters
(   12.000, 0.353E-03)  w-component coherence parameters
       N/A  Coherence exponent


Profiles from User-Defined Time-Series Input:

  Height   Wind Speed   Horizontal Angle   Vertical Angle
   (m)        (m/s)          (deg)              (deg)    
  ------   ----------   ----------------   --------------
   71.00       7.67           0.00                0.00


You have requested that the following file(s) be generated:

   D:\data\40_mahfouz\github\repo\r-test\glue-codes\fast-farm\ModAmb_3\Cond00_v08.0_PL0.2_TI6\Case0_wdir0.0\Seed_0\TurbSim\HighT3.bts (AeroDyn/TurbSim full-field wind file)


Turbulence Simulation Scaling Parameter Summary:

   Turbulence model used                            =  User-input time series
   Gradient Richardson number                       =    0.050
   Monin-Obukhov (M-O) z/L parameter                =    0.067
   Monin-Obukhov (M-O) length scale                 = 2340.000 m
   Mean wind speed at hub height                    =    8.979 m/s

   Wind profile type                                =  Power law
   Power law exponent                               =    0.200
   Mean shear across rotor disk                     =    0.023 (m/s)/m
   Assumed rotor diameter                           =  310.000 m
   Surface roughness length                         =    0.030 m

   Nyquist frequency of turbulent wind field        =    1.000 Hz

   Number of time steps in the FFT                  =       20
   Number of time steps output                      =       20
   Number of points simulated                       =     5733


Mean Flow Angles:

   Vertical   =   0.0 degrees
   Horizontal =   0.0 degrees

Mean Wind Speed Profile:

   Height    Wind Speed   Horizontal Angle  Vertical Angle  U-comp (X)   V-comp (Y)   W-comp (Z)
     (m)        (m/s)         (degrees)       (degrees)       (m/s)        (m/s)        (m/s)   
   ------    ----------   ----------------  --------------  ----------   ----------   ----------
    311.0       10.31            0.00            0.00         10.31         0.00         0.00
    306.0       10.27            0.00            0.00         10.27         0.00         0.00
    301.0       10.24            0.00            0.00         10.24         0.00         0.00
    296.0       10.21            0.00            0.00         10.21         0.00         0.00
    291.0       10.17            0.00            0.00         10.17         0.00         0.00
    286.0       10.14            0.00            0.00         10.14         0.00         0.00
    281.0       10.10            0.00            0.00         10.10         0.00         0.00
    276.0       10.06            0.00            0.00         10.06         0.00         0.00
    271.0       10.03            0.00            0.00         10.03         0.00         0.00
    266.0        9.99            0.00            0.00          9.99         0.00         0.00
    261.0        9.95            0.00            0.00          9.95         0.00         0.00
    256.0        9.91            0.00            0.00          9.91         0.00         0.00
    251.0        9.87            0.00            0.00          9.87         0.00         0.00
    246.0        9.84            0.00            0.00          9.84         0.00         0.00
    241.0        9.79            0.00            0.00          9.79         0.00         0.00
    236.0        9.75            0.00            0.00          9.75         0.00         0.00
    231.0        9.71            0.00            0.00          9.71         0.00         0.00
    226.0        9.67            0.00            0.00          9.67         0.00         0.00
    221.0        9.63            0.00            0.00          9.63         0.00         0.00
    216.0        9.58            0.00            0.00          9.58         0.00         0.00
    211.0        9.54            0.00            0.00          9.54         0.00         0.00
    206.0        9.49            0.00            0.00          9.49         0.00         0.00
    201.0        9.45            0.00            0.00          9.45         0.00         0.00
    196.0        9.40            0.00            0.00          9.40         0.00         0.00
    191.0        9.35            0.00            0.00          9.35         0.00         0.00
    186.0        9.30            0.00            0.00          9.30         0.00         0.00
    181.0        9.25            0.00            0.00          9.25         0.00         0.00
    176.0        9.20            0.00            0.00          9.20         0.00         0.00
    171.0        9.15            0.00            0.00          9.15         0.00         0.00
    166.0        9.09            0.00            0.00          9.09         0.00         0.00
    161.0        9.04            0.00            0.00          9.04         0.00         0.00
    156.0        8.98            0.00            0.00          8.98         0.00         0.00
    151.0        8.92            0.00            0.00          8.92         0.00         0.00
    146.0        8.86            0.00            0.00          8.86         0.00         0.00
    141.0        8.80            0.00            0.00          8.80         0.00         0.00
    136.0        8.74            0.00            0.00          8.74         0.00         0.00
    131.0        8.67            0.00            0.00          8.67         0.00         0.00
    126.0        8.60            0.00            0.00          8.60         0.00         0.00
    121.0        8.53            0.00            0.00          8.53         0.00         0.00
    116.0        8.46            0.00            0.00          8.46         0.00         0.00
    111.0        8.39            0.00            0.00          8.39         0.00         0.00
    106.0        8.31            0.00            0.00          8.31         0.00         0.00
    101.0        8.23            0.00            0.00          8.23         0.00         0.00
     96.0        8.15            0.00            0.00          8.15         0.00         0.00
     91.0        8.06            0.00            0.00          8.06         0.00         0.00
     86.0        7.97            0.00            0.00          7.97         0.00         0.00
     81.0        7.88            0.00            0.00          7.88         0.00         0.00
     76.0        7.78            0.00            0.00          7.78         0.00         0.00
     71.0        7.67            0.00            0.00          7.67         0.00         0.00
     66.0        7.56            0.00            0.00          7.56         0.00         0.00
     61.0        7.44            0.00            0.00          7.44         0.00         0.00
     56.0        7.32            0.00            0.00          7.32         0.00         0.00
     51.0        7.18            0.00            0.00          7.18         0.00         0.00
     46.0        7.03            0.00            0.00          7.03         0.00         0.00
     41.0        6.87            0.00            0.00          6.87         0.00         0.00
     36.0        6.70            0.00            0.00          6.70         0.00         0.00
     31.0        6.50            0.00            0.00          6.50         0.00         0.00
     26.0        6.27            0.00            0.00          6.27         0.00         0.00
     21.0        6.01            0.00            0.00          6.01         0.00         0.00
     16.0        5.69            0.00            0.00          5.69         0.00         0.00
     11.0        5.28            0.00            0.00          5.28         0.00         0.00
      6.0        4.68            0.00            0.00          4.68         0.00         0.00
      1.0        3.27            0.00            0.00          3.27         0.00         0.00


Harvested Random Seeds after Generation of the Random Numbers:

      1598024 K 1
            0 K 2


Hub-Height Simulated Turbulence Statistical Summary:

   Type of Wind        Min (m/s)   Mean (m/s)    Max (m/s)  Sigma (m/s)       TI (%)
   ----------------    ---------   ----------    ---------  -----------       ------
   Longitudinal (u)         8.62         8.98         9.33        0.196        2.188
   Lateral (v)             -0.45         0.00         0.28        0.204        2.270
   Vertical (w)            -0.22         0.00         0.29        0.134        1.495
   U component              8.62         8.98         9.33        0.196        2.188
   V component             -0.45         0.00         0.28        0.204        2.270
   W component             -0.22         0.00         0.29        0.134        1.495
   Horizontal (U&V)         8.63         8.98         9.33        0.196        2.178
   Total                    8.63         8.98         9.34        0.196        2.179

                       Min Reynolds     Mean Reynolds    Max Reynolds    Correlation
   Product             Stress (m/s)^2   Stress (m/s)^2   Stress (m/s)^2  Coefficient
   ----------------    --------------   --------------   --------------  -----------
   u'w'                     -0.041            -0.003             0.045        -0.118
   u'v'                     -0.077             0.002             0.116         0.058
   v'w'                     -0.024             0.015             0.073         0.533


   Friction Velocity (Ustar)  =      0.056 m/s
   Maximum Instantaneous TKE  =      0.117 (m/s)^2
   Maximum Instantaneous CTKE =      0.058 (m/s)^2


Grid Point Variance Summary:

   Y-coord -225.00 -220.00 -215.00 -210.00 -205.00 -200.00 -195.00 -190.00 -185.00 -180.00 -175.00 -170.00 -165.00 -160.00 -155.00 -150.00 -145.00 -140.00 -135.00 -130.00 -125.00 -120.00 -115.00 -110.00 -105.00 -100.00  -95.00  -90.00  -85.00  -80.00  -75.00  -70.00  -65.00  -60.00  -55.00  -50.00  -45.00  -40.00  -35.00  -30.00  -25.00  -20.00  -15.00  -10.00   -5.00    0.00    5.00   10.00   15.00   20.00   25.00   30.00   35.00   40.00   45.00   50.00   55.00   60.00   65.00   70.00   75.00   80.00   85.00   90.00   95.00  100.00  105.00  110.00  115.00  120.00  125.00  130.00  135.00  140.00  145.00  150.00  155.00  160.00  165.00  170.00  175.00  180.00  185.00  190.00  195.00  200.00  205.00  210.00  215.00  220.00  225.00

   Height   Standard deviation at grid points for the u component:
   311.00    0.189   0.136   0.164   0.153   0.179   0.158   0.141   0.167   0.182   0.148   0.149   0.170   0.163   0.191   0.210   0.177   0.156   0.173   0.164   0.130   0.159   0.138   0.178   0.199   0.131   0.172   0.214   0.118   0.178   0.140   0.188   0.203   0.207   0.152   0.169   0.118   0.192   0.182   0.159   0.126   0.226   0.154   0.176   0.236   0.097   0.190   0.141   0.152   0.165   0.137   0.195   0.155   0.184   0.110   0.151   0.147   0.149   0.188   0.133   0.209   0.179   0.149   0.170   0.187   0.180   0.134   0.142   0.139   0.149   0.196   0.240   0.246   0.152   0.146   0.163   0.192   0.140   0.205   0.233   0.125   0.178   0.219   0.147   0.220   0.250   0.172   0.201   0.149   0.178   0.127   0.138
   306.00    0.142   0.146   0.137   0.185   0.210   0.163   0.138   0.204   0.166   0.126   0.143   0.204   0.167   0.144   0.159   0.176   0.194   0.121   0.194   0.209   0.132   0.138   0.185   0.157   0.141   0.173   0.172   0.130   0.168   0.140   0.126   0.161   0.184   0.177   0.114   0.137   0.188   0.148   0.163   0.158   0.203   0.203   0.220   0.218   0.175   0.183   0.136   0.169   0.212   0.164   0.178   0.138   0.172   0.211   0.133   0.135   0.157   0.218   0.154   0.202   0.182   0.230   0.169   0.165   0.160   0.147   0.176   0.189   0.141   0.219   0.212   0.221   0.128   0.173   0.147   0.137   0.114   0.215   0.196   0.177   0.119   0.220   0.167   0.172   0.191   0.225   0.127   0.169   0.144   0.236   0.170
   301.00    0.217   0.175   0.139   0.187   0.221   0.216   0.119   0.208   0.252   0.128   0.203   0.147   0.166   0.130   0.161   0.139   0.134   0.166   0.153   0.194   0.167   0.126   0.188   0.188   0.156   0.192   0.173   0.233   0.134   0.166   0.174   0.105   0.183   0.134   0.209   0.240   0.137   0.192   0.161   0.161   0.147   0.172   0.125   0.142   0.158   0.159   0.116   0.168   0.128   0.131   0.151   0.136   0.172   0.192   0.181   0.160   0.203   0.190   0.256   0.184   0.198   0.200   0.145   0.165   0.116   0.160   0.216   0.195   0.166   0.149   0.187   0.191   0.250   0.199   0.130   0.209   0.268   0.218   0.209   0.207   0.225   0.196   0.198   0.145   0.159   0.145   0.156   0.149   0.149   0.189   0.227
   296.00    0.206   0.183   0.164   0.140   0.193   0.140   0.134   0.173   0.151   0.180   0.148   0.133   0.152   0.169   0.191   0.115   0.146   0.181   0.140   0.191   0.212   0.174   0.196   0.128   0.151   0.195   0.237   0.203   0.192   0.141   0.191   0.199   0.165   0.188   0.206   0.180   0.190   0.136   0.218   0.190   0.136   0.123   0.154   0.190   0.140   0.177   0.208   0.241   0.223   0.222   0.149   0.203   0.176   0.132   0.142   0.152   0.177   0.225   0.237   0.143   0.201   0.132   0.158   0.132   0.138   0.214   0.178   0.178   0.169   0.104   0.135   0.209   0.232   0.131   0.231   0.177   0.247   0.157   0.250   0.210   0.194   0.147   0.176   0.160   0.193   0.128   0.168   0.145   0.129   0.193   0.206
   291.00    0.238   0.129   0.181   0.200   0.132   0.196   0.207   0.231   0.143   0.180   0.213   0.227   0.125   0.168   0.145   0.173   0.172   0.170   0.194   0.123   0.168   0.147   0.188   0.234   0.272   0.192   0.244   0.127   0.205   0.130   0.199   0.141   0.134   0.228   0.150   0.138   0.182   0.153   0.199   0.219   0.131   0.171   0.175   0.194   0.221   0.144   0.190   0.170   0.161   0.137   0.222   0.161   0.212   0.238   0.166   0.220   0.128   0.202   0.217   0.176   0.175   0.167   0.136   0.148   0.168   0.229   0.214   0.155   0.202   0.205   0.203   0.220   0.199   0.219   0.210   0.257   0.212   0.262   0.270   0.301   0.190   0.242   0.282   0.328   0.318   0.255   0.123   0.163   0.150   0.199   0.160
   286.00    0.237   0.183   0.122   0.198   0.138   0.181   0.144   0.227   0.211   0.194   0.215   0.206   0.239   0.240   0.247   0.190   0.174   0.157   0.159   0.167   0.176   0.138   0.172   0.157   0.217   0.227   0.216   0.182   0.171   0.204   0.160   0.162   0.177   0.237   0.194   0.126   0.178   0.152   0.159   0.158   0.128   0.181   0.145   0.166   0.213   0.222   0.253   0.232   0.166   0.195   0.165   0.187   0.190   0.202   0.126   0.207   0.107   0.140   0.193   0.184   0.128   0.149   0.134   0.180   0.136   0.205   0.142   0.126   0.146   0.146   0.138   0.161   0.196   0.221   0.265   0.231   0.243   0.273   0.155   0.237   0.267   0.248   0.271   0.283   0.215   0.200   0.189   0.142   0.127   0.164   0.134
   281.00    0.231   0.177   0.180   0.225   0.182   0.126   0.174   0.192   0.182   0.232   0.166   0.151   0.183   0.209   0.126   0.169   0.188   0.164   0.166   0.143   0.134   0.174   0.189   0.117   0.148   0.165   0.122   0.149   0.131   0.152   0.168   0.174   0.167   0.194   0.212   0.228   0.200   0.147   0.136   0.142   0.161   0.179   0.211   0.121   0.155   0.174   0.179   0.195   0.188   0.166   0.186   0.126   0.154   0.162   0.212   0.195   0.132   0.237   0.145   0.159   0.133   0.137   0.184   0.164   0.120   0.181   0.179   0.247   0.158   0.240   0.155   0.165   0.169   0.116   0.231   0.232   0.241   0.219   0.201   0.176   0.170   0.180   0.226   0.238   0.189   0.145   0.149   0.149   0.202   0.144   0.164
   276.00    0.235   0.148   0.126   0.161   0.221   0.205   0.131   0.148   0.195   0.240   0.256   0.176   0.158   0.172   0.122   0.160   0.212   0.189   0.130   0.168   0.126   0.142   0.152   0.197   0.190   0.159   0.193   0.209   0.169   0.250   0.295   0.277   0.129   0.159   0.192   0.195   0.114   0.183   0.209   0.200   0.156   0.176   0.173   0.105   0.158   0.162   0.150   0.198   0.225   0.126   0.202   0.141   0.175   0.161   0.194   0.146   0.161   0.212   0.166   0.163   0.148   0.161   0.146   0.157   0.135   0.193   0.169   0.203   0.222   0.194   0.137   0.123   0.190   0.259   0.282   0.231   0.231   0.165   0.174   0.170   0.165   0.160   0.195   0.239   0.121   0.182   0.144   0.204   0.200   0.123   0.134
   271.00    0.222   0.166   0.199   0.143   0.174   0.205   0.232   0.224   0.158   0.187   0.202   0.206   0.154   0.177   0.159   0.139   0.210   0.161   0.108   0.137   0.156   0.173   0.240   0.247   0.123   0.197   0.204   0.228   0.163   0.234   0.276   0.228   0.201   0.159   0.196   0.170   0.181   0.126   0.180   0.110   0.149   0.136   0.184   0.235   0.176   0.160   0.123   0.186   0.252   0.264   0.199   0.126   0.156   0.160   0.135   0.195   0.217   0.235   0.146   0.167   0.162   0.131   0.174   0.147   0.150   0.199   0.130   0.175   0.211   0.130   0.151   0.169   0.200   0.202   0.228   0.220   0.132   0.164   0.214   0.170   0.211   0.147   0.170   0.233   0.262   0.125   0.133   0.181   0.193   0.164   0.141
   266.00    0.175   0.195   0.160   0.242   0.169   0.118   0.162   0.191   0.151   0.194   0.216   0.191   0.150   0.186   0.190   0.190   0.177   0.182   0.192   0.152   0.168   0.178   0.168   0.199   0.143   0.207   0.111   0.142   0.153   0.196   0.194   0.224   0.132   0.152   0.170   0.134   0.224   0.199   0.139   0.166   0.119   0.123   0.184   0.194   0.231   0.113   0.155   0.164   0.213   0.209   0.232   0.164   0.111   0.171   0.183   0.138   0.209   0.243   0.193   0.168   0.099   0.141   0.136   0.148   0.142   0.187   0.166   0.190   0.130   0.157   0.177   0.170   0.124   0.167   0.187   0.192   0.133   0.143   0.146   0.185   0.228   0.128   0.146   0.191   0.255   0.123   0.169   0.202   0.151   0.155   0.159
   261.00    0.158   0.111   0.193   0.180   0.249   0.232   0.224   0.204   0.192   0.211   0.186   0.172   0.128   0.137   0.168   0.142   0.173   0.136   0.144   0.207   0.126   0.134   0.149   0.158   0.181   0.190   0.186   0.140   0.147   0.165   0.180   0.163   0.140   0.223   0.113   0.175   0.184   0.141   0.177   0.182   0.214   0.214   0.150   0.212   0.177   0.116   0.140   0.154   0.197   0.223   0.203   0.180   0.235   0.124   0.176   0.148   0.174   0.159   0.152   0.151   0.222   0.140   0.181   0.185   0.162   0.177   0.158   0.158   0.154   0.125   0.191   0.119   0.154   0.177   0.142   0.196   0.167   0.166   0.156   0.183   0.213   0.172   0.135   0.198   0.177   0.193   0.123   0.164   0.145   0.133   0.206
   256.00    0.193   0.187   0.180   0.222   0.198   0.198   0.173   0.156   0.192   0.125   0.130   0.207   0.241   0.128   0.184   0.204   0.214   0.143   0.204   0.139   0.136   0.137   0.169   0.157   0.179   0.246   0.187   0.131   0.136   0.137   0.173   0.181   0.155   0.205   0.143   0.180   0.117   0.157   0.154   0.164   0.169   0.202   0.129   0.205   0.173   0.142   0.186   0.230   0.118   0.147   0.189   0.186   0.200   0.224   0.160   0.130   0.145   0.125   0.161   0.119   0.180   0.231   0.121   0.213   0.168   0.136   0.199   0.226   0.155   0.221   0.235   0.218   0.124   0.145   0.161   0.162   0.201   0.123   0.172   0.122   0.134   0.153   0.199   0.233   0.159   0.167   0.183   0.236   0.194   0.186   0.214
   251.00    0.161   0.154   0.167   0.166   0.131   0.157   0.192   0.138   0.132   0.157   0.200   0.248   0.256   0.124   0.171   0.213   0.151   0.206   0.174   0.153   0.176   0.172   0.134   0.191   0.152   0.196   0.201   0.201   0.257   0.275   0.267   0.147   0.147   0.203   0.187   0.152   0.186   0.162   0.166   0.162   0.171   0.158   0.160   0.150   0.165   0.228   0.145   0.212   0.205   0.123   0.124   0.165   0.194   0.141   0.165   0.137   0.159   0.130   0.129   0.200   0.252   0.232   0.157   0.196   0.225   0.192   0.228   0.283   0.220   0.228   0.164   0.221   0.203   0.159   0.150   0.133   0.183   0.128   0.136   0.149   0.187   0.228   0.203   0.211   0.164   0.156   0.144   0.204   0.254   0.241   0.218
   246.00    0.154   0.149   0.204   0.232   0.176   0.161   0.248   0.209   0.159   0.142   0.177   0.160   0.204   0.222   0.242   0.150   0.157   0.185   0.161   0.227   0.196   0.139   0.188   0.180   0.157   0.150   0.122   0.175   0.209   0.194   0.222   0.172   0.129   0.193   0.124   0.135   0.183   0.140   0.204   0.122   0.139   0.178   0.141   0.189   0.138   0.198   0.258   0.268   0.288   0.282   0.184   0.132   0.219   0.187   0.164   0.198   0.113   0.123   0.194   0.238   0.221   0.248   0.103   0.181   0.175   0.208   0.111   0.212   0.236   0.229   0.242   0.251   0.175   0.169   0.165   0.189   0.236   0.226   0.142   0.166   0.251   0.204   0.125   0.222   0.230   0.253   0.205   0.211   0.265   0.292   0.169
   241.00    0.123   0.161   0.205   0.171   0.215   0.137   0.206   0.228   0.134   0.175   0.180   0.152   0.176   0.189   0.164   0.182   0.118   0.132   0.179   0.229   0.125   0.178   0.179   0.141   0.157   0.164   0.171   0.194   0.168   0.137   0.215   0.253   0.124   0.172   0.198   0.137   0.183   0.210   0.206   0.217   0.137   0.161   0.123   0.153   0.180   0.240   0.162   0.257   0.195   0.240   0.229   0.145   0.183   0.200   0.207   0.203   0.161   0.188   0.232   0.197   0.175   0.184   0.190   0.189   0.136   0.164   0.191   0.180   0.216   0.146   0.198   0.176   0.202   0.177   0.121   0.191   0.239   0.254   0.170   0.140   0.171   0.222   0.225   0.224   0.160   0.225   0.237   0.185   0.221   0.231   0.218
   236.00    0.202   0.156   0.152   0.184   0.206   0.138   0.187   0.211   0.135   0.133   0.190   0.214   0.166   0.149   0.131   0.171   0.196   0.145   0.187   0.187   0.226   0.137   0.175   0.194   0.120   0.167   0.177   0.141   0.154   0.127   0.191   0.202   0.237   0.220   0.148   0.181   0.145   0.153   0.226   0.165   0.144   0.156   0.193   0.159   0.157   0.216   0.211   0.213   0.225   0.175   0.157   0.194   0.122   0.170   0.126   0.194   0.135   0.149   0.181   0.137   0.133   0.214   0.156   0.163   0.187   0.187   0.142   0.156   0.198   0.196   0.190   0.143   0.202   0.167   0.204   0.234   0.176   0.221   0.196   0.133   0.181   0.172   0.173   0.199   0.196   0.248   0.143   0.168   0.138   0.183   0.146
   231.00    0.165   0.178   0.152   0.187   0.209   0.164   0.197   0.238   0.146   0.166   0.146   0.134   0.158   0.195   0.186   0.137   0.159   0.119   0.134   0.172   0.178   0.170   0.192   0.144   0.168   0.241   0.128   0.180   0.150   0.235   0.126   0.205   0.228   0.203   0.160   0.138   0.150   0.212   0.221   0.148   0.180   0.135   0.149   0.140   0.127   0.169   0.221   0.177   0.184   0.146   0.143   0.135   0.172   0.134   0.169   0.170   0.155   0.168   0.134   0.186   0.206   0.248   0.228   0.226   0.195   0.135   0.145   0.159   0.202   0.140   0.150   0.140   0.169   0.123   0.169   0.189   0.222   0.205   0.209   0.180   0.176   0.150   0.189   0.186   0.141   0.223   0.246   0.235   0.122   0.162   0.173
   226.00    0.144   0.167   0.213   0.132   0.145   0.149   0.174   0.175   0.170   0.139   0.163   0.175   0.201   0.135   0.150   0.175   0.165   0.171   0.176   0.183   0.149   0.149   0.182   0.171   0.152   0.173   0.203   0.143   0.206   0.247   0.236   0.154   0.227   0.196   0.129   0.184   0.222   0.225   0.164   0.183   0.185   0.139   0.197   0.162   0.139   0.164   0.160   0.145   0.131   0.176   0.175   0.149   0.169   0.183   0.141   0.251   0.231   0.144   0.208   0.179   0.163   0.184   0.214   0.213   0.170   0.183   0.168   0.163   0.169   0.138   0.133   0.169   0.150   0.183   0.132   0.151   0.164   0.125   0.186   0.162   0.119   0.162   0.136   0.164   0.165   0.169   0.226   0.185   0.138   0.125   0.175
   221.00    0.196   0.149   0.164   0.165   0.240   0.201   0.140   0.123   0.195   0.131   0.149   0.143   0.195   0.113   0.194   0.133   0.143   0.158   0.192   0.134   0.203   0.171   0.130   0.138   0.197   0.173   0.204   0.139   0.195   0.196   0.235   0.209   0.209   0.257   0.231   0.221   0.230   0.224   0.213   0.196   0.138   0.144   0.213   0.237   0.181   0.153   0.138   0.195   0.162   0.195   0.175   0.187   0.114   0.159   0.222   0.275   0.246   0.218   0.246   0.196   0.160   0.216   0.159   0.181   0.125   0.159   0.119   0.147   0.129   0.168   0.244   0.173   0.221   0.142   0.161   0.162   0.140   0.147   0.176   0.205   0.238   0.130   0.154   0.139   0.168   0.206   0.186   0.171   0.223   0.149   0.185
   216.00    0.165   0.168   0.176   0.126   0.204   0.230   0.112   0.213   0.268   0.120   0.241   0.287   0.170   0.195   0.205   0.131   0.122   0.154   0.180   0.258   0.243   0.139   0.129   0.260   0.195   0.206   0.121   0.172   0.143   0.225   0.187   0.158   0.213   0.211   0.198   0.207   0.168   0.170   0.172   0.159   0.165   0.185   0.257   0.238   0.156   0.148   0.205   0.196   0.213   0.137   0.190   0.221   0.194   0.150   0.163   0.204   0.233   0.136   0.202   0.149   0.171   0.217   0.167   0.173   0.222   0.136   0.162   0.196   0.229   0.182   0.167   0.186   0.138   0.147   0.183   0.138   0.169   0.157   0.188   0.204   0.111   0.237   0.208   0.134   0.209   0.165   0.140   0.183   0.127   0.243   0.139
   211.00    0.191   0.234   0.112   0.182   0.146   0.135   0.201   0.188   0.209   0.183   0.226   0.242   0.200   0.248   0.269   0.240   0.155   0.148   0.140   0.212   0.276   0.199   0.279   0.287   0.298   0.137   0.164   0.217   0.176   0.155   0.203   0.183   0.212   0.164   0.113   0.200   0.137   0.152   0.129   0.165   0.232   0.248   0.270   0.199   0.174   0.148   0.193   0.169   0.174   0.175   0.193   0.185   0.123   0.175   0.187   0.104   0.160   0.174   0.173   0.188   0.210   0.206   0.129   0.155   0.157   0.141   0.161   0.131   0.211   0.157   0.182   0.139   0.124   0.167   0.173   0.196   0.177   0.143   0.128   0.153   0.170   0.259   0.314   0.279   0.265   0.155   0.174   0.164   0.161   0.222   0.278
   206.00    0.188   0.218   0.140   0.158   0.148   0.190   0.128   0.173   0.183   0.189   0.237   0.145   0.221   0.229   0.230   0.131   0.194   0.174   0.177   0.181   0.243   0.285   0.283   0.233   0.270   0.118   0.188   0.232   0.125   0.153   0.141   0.183   0.200   0.143   0.199   0.259   0.263   0.170   0.221   0.136   0.177   0.142   0.194   0.270   0.221   0.142   0.208   0.172   0.194   0.155   0.168   0.157   0.129   0.138   0.159   0.183   0.136   0.167   0.181   0.128   0.155   0.166   0.133   0.215   0.265   0.147   0.179   0.213   0.153   0.186   0.152   0.185   0.219   0.122   0.150   0.129   0.161   0.127   0.209   0.223   0.121   0.203   0.242   0.249   0.196   0.151   0.154   0.139   0.197   0.246   0.248
   201.00    0.194   0.178   0.126   0.167   0.170   0.217   0.183   0.157   0.168   0.229   0.237   0.227   0.208   0.225   0.203   0.163   0.186   0.154   0.122   0.186   0.204   0.213   0.182   0.206   0.230   0.148   0.162   0.188   0.138   0.219   0.128   0.178   0.175   0.151   0.168   0.228   0.229   0.217   0.132   0.217   0.208   0.159   0.180   0.255   0.197   0.167   0.209   0.216   0.199   0.178   0.156   0.110   0.184   0.211   0.114   0.130   0.171   0.127   0.169   0.184   0.189   0.129   0.167   0.172   0.211   0.187   0.185   0.174   0.193   0.222   0.253   0.230   0.194   0.199   0.229   0.239   0.221   0.118   0.190   0.222   0.239   0.128   0.200   0.217   0.117   0.160   0.198   0.165   0.240   0.208   0.193
   196.00    0.167   0.180   0.250   0.107   0.141   0.131   0.197   0.139   0.153   0.173   0.189   0.181   0.188   0.138   0.224   0.138   0.137   0.162   0.205   0.231   0.215   0.215   0.144   0.174   0.182   0.154   0.186   0.197   0.175   0.207   0.178   0.155   0.149   0.183   0.224   0.230   0.176   0.166   0.151   0.233   0.230   0.135   0.149   0.220   0.189   0.165   0.172   0.150   0.174   0.186   0.216   0.185   0.154   0.161   0.181   0.165   0.165   0.140   0.165   0.143   0.162   0.244   0.125   0.167   0.222   0.183   0.152   0.160   0.200   0.221   0.167   0.176   0.194   0.113   0.146   0.166   0.140   0.181   0.129   0.152   0.181   0.125   0.199   0.161   0.191   0.126   0.133   0.175   0.198   0.248   0.209
   191.00    0.226   0.170   0.178   0.200   0.178   0.187   0.167   0.234   0.209   0.189   0.212   0.149   0.194   0.169   0.154   0.201   0.222   0.242   0.243   0.157   0.151   0.164   0.178   0.133   0.164   0.141   0.185   0.182   0.140   0.202   0.172   0.139   0.166   0.189   0.226   0.250   0.164   0.273   0.273   0.211   0.191   0.184   0.172   0.155   0.191   0.234   0.265   0.134   0.149   0.218   0.228   0.144   0.145   0.179   0.138   0.150   0.167   0.153   0.171   0.147   0.203   0.259   0.284   0.149   0.138   0.179   0.194   0.198   0.153   0.200   0.109   0.163   0.168   0.163   0.162   0.117   0.186   0.127   0.147   0.171   0.166   0.155   0.202   0.217   0.152   0.154   0.153   0.186   0.196   0.226   0.132
   186.00    0.208   0.196   0.135   0.101   0.134   0.162   0.130   0.181   0.204   0.214   0.176   0.196   0.176   0.129   0.170   0.157   0.206   0.171   0.138   0.188   0.146   0.130   0.132   0.173   0.168   0.114   0.161   0.176   0.138   0.135   0.214   0.162   0.161   0.156   0.182   0.234   0.208   0.262   0.276   0.120   0.154   0.160   0.149   0.161   0.147   0.196   0.199   0.184   0.197   0.209   0.203   0.203   0.183   0.192   0.150   0.131   0.193   0.144   0.182   0.172   0.165   0.217   0.239   0.198   0.242   0.116   0.158   0.125   0.132   0.141   0.141   0.162   0.144   0.140   0.194   0.130   0.152   0.182   0.160   0.126   0.184   0.163   0.199   0.148   0.229   0.213   0.181   0.155   0.180   0.167   0.187
   181.00    0.175   0.142   0.175   0.230   0.226   0.167   0.172   0.245   0.167   0.120   0.221   0.158   0.152   0.172   0.140   0.172   0.203   0.112   0.191   0.183   0.170   0.158   0.211   0.131   0.157   0.146   0.191   0.170   0.112   0.149   0.157   0.192   0.188   0.130   0.171   0.129   0.152   0.196   0.206   0.124   0.157   0.140   0.141   0.153   0.172   0.136   0.144   0.205   0.186   0.195   0.229   0.239   0.296   0.156   0.188   0.139   0.154   0.160   0.142   0.172   0.142   0.208   0.146   0.171   0.170   0.220   0.210   0.178   0.227   0.184   0.191   0.157   0.174   0.255   0.200   0.217   0.195   0.189   0.150   0.138   0.180   0.177   0.152   0.240   0.285   0.132   0.204   0.195   0.129   0.179   0.170
   176.00    0.149   0.169   0.177   0.134   0.194   0.181   0.160   0.158   0.196   0.214   0.229   0.200   0.179   0.201   0.254   0.159   0.208   0.214   0.202   0.161   0.126   0.176   0.221   0.196   0.184   0.174   0.223   0.273   0.288   0.195   0.191   0.230   0.122   0.138   0.150   0.187   0.186   0.119   0.149   0.188   0.147   0.117   0.199   0.132   0.156   0.190   0.182   0.226   0.191   0.107   0.233   0.266   0.245   0.203   0.163   0.132   0.130   0.221   0.192   0.138   0.210   0.206   0.132   0.179   0.177   0.164   0.232   0.144   0.175   0.199   0.241   0.129   0.135   0.208   0.250   0.129   0.213   0.118   0.182   0.229   0.255   0.129   0.155   0.227   0.255   0.259   0.220   0.116   0.130   0.136   0.155
   171.00    0.176   0.209   0.166   0.174   0.153   0.119   0.159   0.171   0.154   0.130   0.162   0.165   0.198   0.246   0.257   0.273   0.266   0.127   0.176   0.180   0.209   0.148   0.170   0.165   0.157   0.148   0.164   0.177   0.246   0.162   0.194   0.188   0.233   0.224   0.161   0.152   0.146   0.166   0.176   0.182   0.204   0.229   0.248   0.310   0.179   0.251   0.124   0.155   0.195   0.215   0.235   0.251   0.146   0.182   0.148   0.151   0.213   0.209   0.201   0.211   0.129   0.154   0.177   0.205   0.149   0.147   0.196   0.226   0.227   0.190   0.199   0.128   0.151   0.202   0.165   0.194   0.208   0.246   0.139   0.178   0.176   0.174   0.138   0.202   0.264   0.214   0.225   0.172   0.153   0.224   0.152
   166.00    0.173   0.185   0.165   0.174   0.189   0.187   0.145   0.149   0.177   0.128   0.193   0.130   0.165   0.167   0.150   0.168   0.197   0.147   0.186   0.163   0.178   0.153   0.140   0.211   0.197   0.186   0.163   0.143   0.175   0.214   0.238   0.225   0.204   0.199   0.173   0.242   0.183   0.122   0.148   0.161   0.174   0.144   0.194   0.257   0.237   0.280   0.152   0.170   0.137   0.146   0.191   0.181   0.150   0.159   0.191   0.169   0.184   0.166   0.163   0.129   0.170   0.140   0.144   0.196   0.188   0.194   0.256   0.265   0.159   0.139   0.200   0.206   0.180   0.171   0.156   0.183   0.128   0.190   0.163   0.174   0.187   0.155   0.164   0.204   0.261   0.120   0.174   0.184   0.204   0.245   0.135
   161.00    0.177   0.183   0.213   0.171   0.235   0.135   0.142   0.190   0.223   0.172   0.114   0.159   0.131   0.126   0.213   0.131   0.126   0.185   0.203   0.236   0.186   0.257   0.231   0.277   0.179   0.148   0.184   0.132   0.139   0.208   0.166   0.197   0.117   0.184   0.134   0.228   0.191   0.139   0.183   0.177   0.159   0.125   0.187   0.198   0.226   0.243   0.266   0.173   0.160   0.131   0.208   0.210   0.146   0.157   0.192   0.149   0.114   0.188   0.135   0.176   0.202   0.205   0.127   0.187   0.160   0.186   0.215   0.211   0.137   0.217   0.145   0.179   0.137   0.199   0.181   0.139   0.170   0.182   0.157   0.149   0.208   0.194   0.157   0.188   0.225   0.175   0.192   0.178   0.140   0.252   0.140
   156.00    0.128   0.138   0.151   0.166   0.195   0.241   0.142   0.136   0.164   0.177   0.184   0.144   0.169   0.159   0.219   0.254   0.170   0.243   0.145   0.186   0.218   0.273   0.280   0.235   0.200   0.149   0.174   0.163   0.181   0.154   0.200   0.170   0.164   0.216   0.158   0.246   0.278   0.165   0.158   0.136   0.123   0.162   0.155   0.235   0.147   0.196   0.256   0.203   0.145   0.171   0.183   0.136   0.124   0.169   0.183   0.126   0.172   0.218   0.130   0.147   0.153   0.160   0.156   0.158   0.142   0.145   0.184   0.200   0.213   0.252   0.198   0.112   0.212   0.225   0.149   0.138   0.176   0.183   0.169   0.232   0.235   0.155   0.198   0.137   0.192   0.183   0.160   0.176   0.251   0.279   0.265
   151.00    0.168   0.161   0.155   0.190   0.178   0.199   0.173   0.202   0.143   0.189   0.202   0.147   0.115   0.195   0.199   0.247   0.223   0.150   0.201   0.145   0.171   0.264   0.280   0.175   0.185   0.167   0.140   0.156   0.139   0.149   0.204   0.237   0.191   0.109   0.217   0.223   0.248   0.172   0.113   0.135   0.126   0.184   0.205   0.155   0.257   0.156   0.256   0.189   0.148   0.149   0.161   0.151   0.163   0.187   0.178   0.162   0.134   0.170   0.169   0.208   0.124   0.132   0.201   0.158   0.169   0.190   0.133   0.211   0.196   0.208   0.220   0.165   0.226   0.200   0.130   0.153   0.175   0.150   0.224   0.148   0.182   0.192   0.141   0.128   0.196   0.162   0.168   0.155   0.206   0.208   0.165
   146.00    0.139   0.139   0.161   0.130   0.195   0.200   0.214   0.159   0.163   0.194   0.159   0.175   0.212   0.140   0.188   0.185   0.166   0.109   0.150   0.137   0.153   0.214   0.239   0.132   0.142   0.170   0.143   0.179   0.222   0.146   0.151   0.152   0.122   0.181   0.199   0.167   0.188   0.237   0.293   0.317   0.211   0.135   0.163   0.160   0.231   0.249   0.298   0.223   0.184   0.182   0.118   0.182   0.122   0.158   0.144   0.167   0.170   0.138   0.170   0.222   0.130   0.166   0.203   0.219   0.180   0.212   0.195   0.192   0.221   0.133   0.138   0.170   0.180   0.199   0.192   0.136   0.235   0.183   0.230   0.229   0.132   0.128   0.159   0.173   0.126   0.146   0.148   0.184   0.188   0.219   0.188
   141.00    0.175   0.133   0.185   0.158   0.197   0.190   0.166   0.180   0.226   0.144   0.168   0.148   0.205   0.159   0.157   0.109   0.145   0.187   0.153   0.148   0.132   0.177   0.136   0.199   0.210   0.155   0.135   0.125   0.167   0.171   0.181   0.182   0.154   0.196   0.191   0.190   0.153   0.247   0.240   0.233   0.212   0.155   0.167   0.141   0.147   0.203   0.242   0.254   0.123   0.165   0.187   0.175   0.155   0.152   0.165   0.215   0.226   0.143   0.148   0.148   0.168   0.213   0.185   0.205   0.150   0.219   0.150   0.128   0.166   0.158   0.148   0.207   0.208   0.139   0.136   0.241   0.292   0.252   0.257   0.207   0.207   0.161   0.159   0.182   0.178   0.173   0.189   0.154   0.185   0.169   0.166
   136.00    0.147   0.166   0.172   0.108   0.133   0.150   0.171   0.195   0.177   0.164   0.164   0.160   0.208   0.223   0.206   0.187   0.161   0.167   0.143   0.192   0.164   0.142   0.144   0.175   0.178   0.181   0.207   0.195   0.115   0.157   0.142   0.140   0.167   0.151   0.142   0.182   0.130   0.226   0.219   0.240   0.197   0.189   0.237   0.207   0.225   0.136   0.155   0.189   0.210   0.149   0.119   0.165   0.142   0.116   0.166   0.175   0.121   0.128   0.171   0.124   0.164   0.131   0.160   0.165   0.140   0.221   0.145   0.191   0.225   0.162   0.131   0.164   0.127   0.132   0.211   0.228   0.238   0.253   0.259   0.211   0.150   0.157   0.140   0.176   0.134   0.161   0.130   0.179   0.123   0.141   0.163
   131.00    0.137   0.176   0.213   0.142   0.162   0.177   0.193   0.225   0.149   0.153   0.198   0.188   0.240   0.213   0.161   0.130   0.123   0.134   0.181   0.163   0.200   0.155   0.166   0.182   0.156   0.179   0.127   0.160   0.186   0.138   0.174   0.151   0.113   0.175   0.163   0.186   0.197   0.239   0.205   0.173   0.213   0.209   0.152   0.176   0.156   0.202   0.185   0.153   0.175   0.178   0.194   0.139   0.167   0.167   0.221   0.114   0.186   0.197   0.170   0.195   0.185   0.208   0.213   0.130   0.141   0.204   0.159   0.234   0.244   0.144   0.153   0.207   0.240   0.205   0.245   0.227   0.140   0.202   0.199   0.163   0.168   0.153   0.132   0.174   0.162   0.168   0.171   0.155   0.206   0.145   0.198
   126.00    0.156   0.185   0.128   0.198   0.130   0.131   0.129   0.175   0.208   0.117   0.144   0.154   0.207   0.254   0.147   0.203   0.270   0.169   0.156   0.166   0.175   0.239   0.150   0.146   0.210   0.150   0.153   0.152   0.132   0.149   0.155   0.165   0.228   0.194   0.172   0.172   0.180   0.187   0.186   0.185   0.200   0.132   0.148   0.176   0.213   0.247   0.147   0.155   0.142   0.133   0.140   0.189   0.208   0.186   0.219   0.179   0.178   0.229   0.151   0.143   0.180   0.141   0.124   0.176   0.249   0.296   0.153   0.233   0.234   0.134   0.192   0.149   0.164   0.180   0.191   0.170   0.150   0.197   0.148   0.177   0.141   0.146   0.153   0.220   0.146   0.112   0.183   0.125   0.166   0.112   0.162
   121.00    0.162   0.155   0.184   0.179   0.141   0.178   0.135   0.141   0.189   0.126   0.186   0.188   0.178   0.232   0.221   0.144   0.217   0.231   0.191   0.162   0.154   0.196   0.123   0.211   0.200   0.160   0.190   0.155   0.152   0.170   0.141   0.129   0.180   0.182   0.168   0.202   0.118   0.191   0.131   0.161   0.178   0.170   0.204   0.121   0.180   0.239   0.261   0.158   0.134   0.190   0.178   0.165   0.221   0.267   0.166   0.242   0.155   0.200   0.147   0.144   0.168   0.186   0.230   0.240   0.258   0.258   0.244   0.221   0.226   0.154   0.204   0.170   0.217   0.255   0.250   0.119   0.129   0.170   0.202   0.238   0.167   0.186   0.198   0.160   0.208   0.181   0.208   0.171   0.150   0.186   0.199
   116.00    0.141   0.196   0.185   0.144   0.187   0.110   0.169   0.174   0.181   0.175   0.195   0.252   0.163   0.142   0.160   0.151   0.163   0.174   0.160   0.210   0.162   0.154   0.274   0.249   0.136   0.174   0.207   0.126   0.193   0.166   0.210   0.170   0.127   0.199   0.200   0.203   0.175   0.160   0.151   0.184   0.145   0.134   0.144   0.181   0.131   0.198   0.250   0.135   0.185   0.177   0.119   0.116   0.246   0.285   0.290   0.285   0.233   0.128   0.185   0.150   0.157   0.173   0.186   0.147   0.217   0.142   0.174   0.168   0.154   0.224   0.140   0.207   0.200   0.240   0.147   0.152   0.210   0.249   0.191   0.138   0.185   0.151   0.151   0.132   0.164   0.162   0.184   0.134   0.177   0.126   0.130
   111.00    0.193   0.249   0.260   0.230   0.134   0.154   0.173   0.149   0.214   0.257   0.166   0.217   0.242   0.199   0.144   0.143   0.196   0.118   0.140   0.150   0.246   0.282   0.286   0.304   0.274   0.169   0.192   0.170   0.156   0.164   0.178   0.205   0.232   0.217   0.156   0.132   0.155   0.183   0.171   0.124   0.123   0.118   0.141   0.128   0.205   0.124   0.158   0.202   0.186   0.146   0.189   0.210   0.309   0.257   0.256   0.281   0.203   0.207   0.160   0.131   0.144   0.140   0.172   0.190   0.230   0.139   0.136   0.145   0.188   0.211   0.209   0.139   0.207   0.191   0.121   0.177   0.131   0.182   0.232   0.275   0.125   0.142   0.148   0.134   0.160   0.133   0.152   0.172   0.150   0.179   0.201
   106.00    0.157   0.181   0.180   0.198   0.150   0.159   0.126   0.153   0.169   0.176   0.160   0.129   0.177   0.200   0.140   0.213   0.112   0.170   0.150   0.227   0.289   0.304   0.306   0.255   0.224   0.127   0.149   0.126   0.122   0.147   0.175   0.146   0.204   0.187   0.188   0.163   0.171   0.146   0.189   0.247   0.170   0.224   0.261   0.279   0.264   0.177   0.155   0.152   0.155   0.159   0.158   0.256   0.280   0.269   0.274   0.264   0.163   0.275   0.136   0.183   0.168   0.140   0.138   0.157   0.182   0.162   0.148   0.210   0.186   0.181   0.134   0.198   0.164   0.168   0.149   0.168   0.210   0.189   0.175   0.221   0.218   0.132   0.180   0.205   0.142   0.199   0.157   0.175   0.162   0.200   0.197
   101.00    0.249   0.131   0.141   0.185   0.202   0.130   0.146   0.195   0.240   0.130   0.142   0.198   0.141   0.186   0.182   0.190   0.230   0.145   0.188   0.210   0.229   0.277   0.279   0.243   0.138   0.147   0.140   0.139   0.157   0.146   0.216   0.136   0.214   0.159   0.114   0.184   0.222   0.179   0.190   0.197   0.150   0.154   0.169   0.194   0.163   0.177   0.169   0.151   0.175   0.163   0.204   0.221   0.197   0.155   0.163   0.230   0.281   0.255   0.252   0.175   0.143   0.175   0.165   0.131   0.158   0.205   0.263   0.155   0.155   0.128   0.116   0.168   0.175   0.160   0.162   0.180   0.193   0.176   0.166   0.168   0.157   0.160   0.164   0.142   0.164   0.190   0.226   0.214   0.139   0.190   0.202
    96.00    0.214   0.235   0.229   0.248   0.236   0.158   0.163   0.150   0.162   0.237   0.132   0.176   0.141   0.139   0.133   0.166   0.139   0.206   0.269   0.147   0.128   0.231   0.298   0.162   0.163   0.156   0.161   0.137   0.189   0.264   0.254   0.235   0.134   0.254   0.285   0.262   0.191   0.133   0.180   0.123   0.209   0.139   0.151   0.130   0.193   0.180   0.199   0.141   0.161   0.157   0.170   0.143   0.189   0.215   0.149   0.155   0.185   0.203   0.162   0.173   0.153   0.140   0.178   0.154   0.126   0.166   0.258   0.294   0.287   0.290   0.231   0.144   0.161   0.173   0.127   0.149   0.135   0.139   0.171   0.176   0.140   0.170   0.152   0.147   0.154   0.188   0.171   0.157   0.171   0.177   0.167
    91.00    0.188   0.237   0.256   0.185   0.181   0.155   0.161   0.201   0.148   0.216   0.234   0.204   0.136   0.151   0.173   0.214   0.223   0.137   0.180   0.231   0.272   0.244   0.253   0.259   0.251   0.191   0.198   0.130   0.174   0.194   0.205   0.229   0.211   0.255   0.245   0.223   0.185   0.132   0.151   0.139   0.186   0.180   0.123   0.199   0.122   0.237   0.200   0.189   0.175   0.183   0.154   0.151   0.189   0.185   0.153   0.149   0.199   0.160   0.118   0.159   0.122   0.183   0.151   0.149   0.167   0.175   0.191   0.243   0.211   0.201   0.138   0.166   0.137   0.164   0.140   0.187   0.218   0.139   0.159   0.158   0.139   0.131   0.143   0.151   0.161   0.217   0.122   0.173   0.193   0.125   0.191
    86.00    0.223   0.223   0.218   0.146   0.210   0.152   0.156   0.209   0.232   0.181   0.213   0.239   0.150   0.181   0.165   0.155   0.153   0.132   0.184   0.177   0.214   0.230   0.199   0.208   0.196   0.134   0.188   0.140   0.173   0.119   0.168   0.195   0.124   0.191   0.159   0.180   0.203   0.106   0.165   0.168   0.210   0.150   0.150   0.180   0.245   0.223   0.229   0.203   0.194   0.190   0.226   0.177   0.135   0.121   0.181   0.250   0.156   0.169   0.136   0.205   0.218   0.212   0.165   0.161   0.165   0.137   0.163   0.210   0.144   0.141   0.199   0.203   0.131   0.193   0.190   0.129   0.145   0.139   0.179   0.114   0.140   0.154   0.191   0.105   0.174   0.240   0.134   0.176   0.155   0.187   0.155
    81.00    0.252   0.145   0.142   0.158   0.159   0.187   0.132   0.132   0.174   0.206   0.134   0.166   0.158   0.180   0.151   0.156   0.216   0.172   0.180   0.175   0.185   0.193   0.247   0.194   0.146   0.122   0.149   0.202   0.179   0.227   0.211   0.121   0.188   0.209   0.127   0.144   0.121   0.151   0.158   0.173   0.189   0.123   0.171   0.144   0.203   0.212   0.188   0.150   0.183   0.165   0.237   0.113   0.152   0.155   0.165   0.192   0.215   0.147   0.160   0.194   0.143   0.139   0.128   0.157   0.196   0.233   0.107   0.177   0.203   0.240   0.211   0.123   0.121   0.208   0.187   0.188   0.158   0.144   0.240   0.287   0.133   0.195   0.138   0.172   0.228   0.242   0.241   0.139   0.145   0.176   0.140
    76.00    0.264   0.265   0.247   0.153   0.175   0.201   0.193   0.228   0.143   0.131   0.158   0.172   0.183   0.127   0.182   0.115   0.191   0.153   0.168   0.169   0.219   0.215   0.217   0.241   0.244   0.145   0.127   0.159   0.145   0.151   0.162   0.141   0.189   0.158   0.154   0.210   0.116   0.172   0.184   0.158   0.151   0.186   0.172   0.167   0.182   0.175   0.159   0.126   0.159   0.195   0.253   0.261   0.124   0.166   0.182   0.126   0.169   0.190   0.185   0.175   0.130   0.187   0.131   0.128   0.172   0.176   0.156   0.147   0.170   0.194   0.119   0.178   0.222   0.225   0.143   0.159   0.145   0.158   0.193   0.207   0.203   0.194   0.170   0.171   0.228   0.164   0.210   0.161   0.113   0.183   0.187
    71.00    0.243   0.290   0.301   0.132   0.165   0.227   0.131   0.207   0.134   0.170   0.122   0.178   0.143   0.170   0.174   0.231   0.169   0.169   0.115   0.170   0.227   0.155   0.152   0.163   0.183   0.192   0.167   0.170   0.145   0.146   0.109   0.199   0.232   0.165   0.218   0.238   0.177   0.153   0.162   0.139   0.137   0.143   0.137   0.150   0.118   0.182   0.169   0.156   0.201   0.238   0.268   0.220   0.208   0.143   0.175   0.156   0.159   0.147   0.157   0.153   0.217   0.157   0.155   0.221   0.153   0.164   0.169   0.137   0.151   0.188   0.186   0.180   0.242   0.201   0.206   0.168   0.129   0.136   0.159   0.169   0.157   0.175   0.122   0.166   0.232   0.162   0.232   0.177   0.190   0.195   0.152
    66.00    0.200   0.239   0.223   0.205   0.111   0.186   0.222   0.227   0.151   0.147   0.203   0.167   0.136   0.157   0.186   0.187   0.211   0.189   0.159   0.118   0.148   0.151   0.197   0.139   0.155   0.119   0.140   0.130   0.152   0.157   0.170   0.254   0.242   0.212   0.178   0.174   0.136   0.148   0.189   0.136   0.131   0.133   0.157   0.169   0.153   0.149   0.189   0.177   0.169   0.200   0.210   0.237   0.133   0.134   0.153   0.147   0.175   0.167   0.149   0.194   0.188   0.155   0.140   0.154   0.169   0.189   0.139   0.163   0.178   0.144   0.151   0.201   0.243   0.131   0.167   0.175   0.147   0.151   0.206   0.119   0.128   0.150   0.221   0.142   0.174   0.220   0.234   0.214   0.136   0.181   0.154
    61.00    0.257   0.222   0.144   0.123   0.157   0.187   0.233   0.159   0.189   0.179   0.174   0.132   0.128   0.172   0.149   0.139   0.183   0.135   0.169   0.167   0.197   0.173   0.159   0.163   0.195   0.182   0.191   0.170   0.225   0.146   0.134   0.214   0.232   0.203   0.154   0.149   0.210   0.159   0.125   0.141   0.172   0.134   0.155   0.172   0.177   0.180   0.208   0.122   0.163   0.173   0.175   0.196   0.146   0.171   0.166   0.155   0.193   0.176   0.162   0.159   0.162   0.162   0.120   0.147   0.193   0.169   0.187   0.132   0.167   0.148   0.153   0.188   0.146   0.201   0.147   0.135   0.203   0.112   0.158   0.150   0.194   0.156   0.185   0.217   0.131   0.108   0.156   0.212   0.219   0.160   0.157
    56.00    0.239   0.253   0.240   0.196   0.150   0.199   0.229   0.189   0.183   0.247   0.224   0.150   0.135   0.180   0.244   0.271   0.186   0.169   0.174   0.169   0.210   0.153   0.170   0.138   0.127   0.130   0.154   0.181   0.234   0.212   0.181   0.207   0.241   0.129   0.201   0.257   0.280   0.216   0.169   0.188   0.130   0.167   0.123   0.165   0.156   0.184   0.185   0.194   0.128   0.194   0.129   0.193   0.146   0.195   0.184   0.107   0.186   0.173   0.126   0.183   0.152   0.157   0.216   0.132   0.175   0.157   0.122   0.171   0.120   0.126   0.132   0.159   0.146   0.209   0.136   0.125   0.175   0.178   0.193   0.141   0.173   0.215   0.196   0.200   0.180   0.195   0.113   0.150   0.192   0.197   0.117
    51.00    0.245   0.253   0.149   0.152   0.150   0.152   0.157   0.189   0.257   0.271   0.197   0.129   0.172   0.162   0.164   0.206   0.259   0.248   0.209   0.150   0.215   0.139   0.164   0.145   0.210   0.144   0.150   0.157   0.159   0.175   0.117   0.179   0.225   0.121   0.172   0.249   0.264   0.140   0.235   0.140   0.265   0.275   0.265   0.130   0.176   0.116   0.157   0.171   0.236   0.258   0.226   0.214   0.245   0.134   0.155   0.148   0.159   0.193   0.189   0.234   0.165   0.136   0.186   0.151   0.139   0.231   0.167   0.209   0.175   0.213   0.219   0.220   0.127   0.167   0.144   0.198   0.119   0.202   0.226   0.255   0.139   0.229   0.169   0.191   0.219   0.139   0.184   0.137   0.138   0.144   0.172
    46.00    0.212   0.264   0.199   0.128   0.184   0.114   0.133   0.161   0.176   0.220   0.122   0.175   0.131   0.182   0.141   0.130   0.178   0.219   0.238   0.159   0.175   0.182   0.155   0.194   0.147   0.117   0.133   0.178   0.199   0.167   0.202   0.232   0.199   0.143   0.200   0.237   0.212   0.126   0.182   0.237   0.279   0.278   0.219   0.210   0.139   0.233   0.128   0.193   0.196   0.191   0.160   0.172   0.186   0.220   0.206   0.148   0.208   0.169   0.157   0.199   0.152   0.159   0.155   0.177   0.212   0.226   0.200   0.171   0.192   0.251   0.256   0.114   0.178   0.157   0.186   0.177   0.226   0.209   0.146   0.183   0.174   0.222   0.257   0.207   0.161   0.162   0.143   0.137   0.189   0.144   0.190
    41.00    0.192   0.251   0.224   0.204   0.193   0.171   0.126   0.204   0.176   0.148   0.167   0.144   0.150   0.152   0.167   0.205   0.209   0.182   0.182   0.141   0.164   0.180   0.195   0.278   0.241   0.221   0.146   0.156   0.155   0.161   0.168   0.132   0.146   0.164   0.255   0.260   0.252   0.188   0.135   0.164   0.213   0.210   0.174   0.196   0.164   0.213   0.258   0.167   0.210   0.118   0.156   0.170   0.209   0.228   0.162   0.122   0.166   0.146   0.153   0.149   0.222   0.138   0.156   0.188   0.134   0.188   0.225   0.122   0.166   0.215   0.208   0.152   0.174   0.163   0.183   0.156   0.186   0.185   0.147   0.112   0.165   0.122   0.213   0.194   0.258   0.137   0.180   0.169   0.236   0.131   0.151
    36.00    0.191   0.212   0.193   0.125   0.159   0.138   0.129   0.134   0.172   0.178   0.184   0.158   0.161   0.195   0.166   0.208   0.256   0.167   0.146   0.209   0.157   0.213   0.180   0.223   0.219   0.164   0.157   0.153   0.140   0.166   0.161   0.159   0.206   0.169   0.176   0.225   0.206   0.189   0.157   0.187   0.138   0.200   0.213   0.251   0.223   0.179   0.189   0.191   0.215   0.144   0.172   0.145   0.215   0.220   0.224   0.136   0.154   0.171   0.171   0.165   0.189   0.213   0.196   0.146   0.165   0.177   0.218   0.210   0.132   0.190   0.182   0.148   0.169   0.153   0.196   0.142   0.128   0.140   0.139   0.179   0.192   0.162   0.179   0.165   0.237   0.289   0.259   0.228   0.213   0.132   0.140
    31.00    0.137   0.191   0.119   0.175   0.151   0.148   0.197   0.184   0.139   0.160   0.166   0.153   0.206   0.143   0.185   0.197   0.154   0.201   0.217   0.220   0.190   0.186   0.134   0.154   0.193   0.134   0.158   0.178   0.119   0.139   0.171   0.152   0.165   0.217   0.136   0.166   0.205   0.162   0.180   0.144   0.225   0.189   0.235   0.220   0.232   0.219   0.214   0.192   0.159   0.128   0.162   0.111   0.155   0.192   0.117   0.187   0.199   0.137   0.149   0.211   0.251   0.206   0.208   0.170   0.191   0.157   0.195   0.168   0.232   0.157   0.171   0.125   0.166   0.161   0.144   0.196   0.218   0.166   0.149   0.129   0.187   0.196   0.160   0.124   0.189   0.260   0.255   0.152   0.181   0.155   0.143
    26.00    0.174   0.129   0.141   0.157   0.151   0.138   0.175   0.168   0.180   0.220   0.233   0.135   0.209   0.224   0.212   0.180   0.161   0.150   0.215   0.193   0.135   0.125   0.150   0.174   0.225   0.162   0.192   0.172   0.196   0.137   0.164   0.163   0.144   0.172   0.162   0.181   0.167   0.179   0.139   0.205   0.280   0.238   0.203   0.150   0.156   0.191   0.141   0.166   0.158   0.180   0.143   0.147   0.210   0.168   0.141   0.178   0.197   0.119   0.204   0.175   0.188   0.215   0.261   0.235   0.205   0.147   0.172   0.147   0.210   0.178   0.123   0.170   0.190   0.139   0.201   0.216   0.130   0.192   0.236   0.209   0.220   0.169   0.141   0.168   0.165   0.220   0.230   0.193   0.135   0.130   0.152
    21.00    0.112   0.154   0.249   0.200   0.141   0.147   0.115   0.126   0.166   0.147   0.204   0.164   0.188   0.229   0.204   0.165   0.148   0.186   0.252   0.187   0.166   0.172   0.209   0.154   0.228   0.230   0.163   0.214   0.132   0.154   0.155   0.167   0.170   0.222   0.132   0.187   0.177   0.181   0.177   0.227   0.273   0.165   0.127   0.127   0.181   0.213   0.133   0.165   0.159   0.138   0.147   0.153   0.176   0.169   0.226   0.127   0.150   0.174   0.171   0.193   0.141   0.169   0.181   0.165   0.142   0.170   0.176   0.143   0.170   0.181   0.220   0.179   0.156   0.152   0.163   0.116   0.194   0.107   0.204   0.147   0.142   0.190   0.198   0.149   0.174   0.204   0.180   0.154   0.184   0.136   0.140
    16.00    0.228   0.281   0.259   0.300   0.287   0.205   0.194   0.232   0.150   0.169   0.180   0.223   0.170   0.167   0.159   0.194   0.107   0.180   0.206   0.207   0.110   0.135   0.153   0.159   0.227   0.228   0.140   0.166   0.162   0.191   0.146   0.140   0.186   0.228   0.240   0.172   0.164   0.158   0.134   0.165   0.190   0.219   0.145   0.182   0.192   0.161   0.168   0.144   0.150   0.128   0.190   0.176   0.155   0.160   0.165   0.204   0.122   0.143   0.139   0.194   0.275   0.249   0.136   0.120   0.200   0.187   0.152   0.192   0.136   0.127   0.196   0.195   0.201   0.203   0.229   0.216   0.186   0.241   0.137   0.184   0.175   0.238   0.271   0.218   0.214   0.193   0.155   0.144   0.148   0.145   0.173
    11.00    0.187   0.237   0.273   0.271   0.259   0.143   0.140   0.198   0.212   0.146   0.161   0.228   0.193   0.100   0.147   0.201   0.212   0.133   0.180   0.240   0.118   0.182   0.212   0.136   0.176   0.146   0.129   0.133   0.155   0.179   0.188   0.127   0.157   0.207   0.213   0.110   0.133   0.165   0.137   0.164   0.149   0.159   0.245   0.200   0.138   0.156   0.127   0.152   0.170   0.216   0.161   0.230   0.107   0.146   0.143   0.161   0.151   0.163   0.171   0.229   0.249   0.268   0.212   0.173   0.177   0.226   0.132   0.198   0.149   0.159   0.171   0.166   0.150   0.169   0.239   0.229   0.265   0.216   0.137   0.169   0.182   0.180   0.217   0.191   0.140   0.157   0.120   0.185   0.153   0.155   0.142
     6.00    0.190   0.181   0.224   0.242   0.198   0.142   0.175   0.202   0.136   0.190   0.255   0.204   0.173   0.206   0.172   0.229   0.126   0.189   0.180   0.220   0.199   0.139   0.233   0.168   0.133   0.147   0.189   0.198   0.148   0.166   0.165   0.169   0.194   0.134   0.169   0.208   0.167   0.126   0.169   0.146   0.190   0.177   0.205   0.172   0.167   0.181   0.195   0.134   0.159   0.204   0.184   0.198   0.134   0.215   0.109   0.167   0.172   0.180   0.166   0.209   0.142   0.243   0.149   0.132   0.181   0.131   0.191   0.214   0.149   0.198   0.279   0.176   0.223   0.174   0.173   0.241   0.260   0.179   0.177   0.128   0.188   0.212   0.121   0.232   0.167   0.151   0.204   0.216   0.140   0.146   0.156
     1.00    0.182   0.141   0.138   0.194   0.162   0.208   0.229   0.161   0.146   0.156   0.188   0.225   0.137   0.190   0.130   0.190   0.142   0.150   0.173   0.197   0.151   0.191   0.220   0.244   0.222   0.131   0.155   0.201   0.159   0.187   0.169   0.216   0.218   0.172   0.170   0.179   0.123   0.182   0.199   0.137   0.202   0.137   0.186   0.204   0.126   0.169   0.139   0.161   0.162   0.197   0.127   0.174   0.168   0.210   0.227   0.231   0.112   0.166   0.212   0.157   0.201   0.229   0.246   0.258   0.215   0.224   0.179   0.185   0.152   0.181   0.209   0.240   0.186   0.194   0.130   0.170   0.220   0.235   0.160   0.201   0.182   0.214   0.224   0.238   0.252   0.166   0.157   0.162   0.201   0.177   0.170

   Height   Standard deviation at grid points for the v component:
   311.00    0.161   0.171   0.215   0.251   0.159   0.201   0.279   0.322   0.181   0.156   0.219   0.190   0.169   0.187   0.147   0.232   0.261   0.239   0.178   0.157   0.153   0.214   0.226   0.157   0.192   0.179   0.216   0.137   0.169   0.140   0.209   0.198   0.150   0.230   0.163   0.222   0.148   0.175   0.155   0.152   0.146   0.205   0.289   0.145   0.230   0.216   0.218   0.185   0.231   0.132   0.201   0.258   0.255   0.218   0.189   0.166   0.226   0.215   0.177   0.169   0.128   0.211   0.238   0.151   0.199   0.186   0.197   0.205   0.192   0.154   0.199   0.184   0.232   0.206   0.223   0.289   0.178   0.161   0.176   0.175   0.186   0.194   0.181   0.200   0.170   0.195   0.134   0.188   0.183   0.183   0.181
   306.00    0.172   0.188   0.207   0.176   0.165   0.190   0.216   0.233   0.231   0.142   0.219   0.142   0.237   0.175   0.169   0.247   0.241   0.300   0.162   0.222   0.153   0.151   0.165   0.220   0.177   0.167   0.151   0.174   0.157   0.212   0.202   0.138   0.251   0.304   0.193   0.163   0.206   0.176   0.149   0.199   0.142   0.208   0.256   0.241   0.207   0.174   0.156   0.165   0.170   0.224   0.156   0.228   0.227   0.193   0.183   0.130   0.143   0.155   0.174   0.139   0.197   0.177   0.170   0.213   0.156   0.192   0.224   0.136   0.174   0.178   0.212   0.170   0.194   0.181   0.168   0.247   0.277   0.144   0.175   0.155   0.142   0.218   0.136   0.205   0.140   0.169   0.161   0.175   0.224   0.196   0.187
   301.00    0.272   0.179   0.126   0.197   0.178   0.146   0.188   0.159   0.162   0.187   0.186   0.191   0.242   0.255   0.206   0.230   0.263   0.256   0.249   0.240   0.168   0.147   0.152   0.195   0.189   0.162   0.174   0.160   0.185   0.213   0.212   0.178   0.226   0.266   0.267   0.252   0.189   0.215   0.149   0.166   0.193   0.201   0.210   0.195   0.182   0.206   0.171   0.155   0.195   0.151   0.166   0.195   0.152   0.195   0.159   0.188   0.223   0.201   0.204   0.200   0.189   0.135   0.195   0.163   0.143   0.160   0.212   0.219   0.189   0.180   0.181   0.156   0.166   0.159   0.175   0.195   0.231   0.256   0.219   0.158   0.164   0.179   0.200   0.183   0.222   0.175   0.174   0.211   0.194   0.169   0.196
   296.00    0.222   0.278   0.293   0.256   0.226   0.202   0.205   0.187   0.192   0.166   0.151   0.227   0.270   0.189   0.220   0.281   0.271   0.175   0.190   0.220   0.185   0.228   0.110   0.143   0.169   0.183   0.154   0.221   0.270   0.301   0.158   0.173   0.145   0.196   0.238   0.212   0.151   0.207   0.164   0.187   0.139   0.167   0.144   0.150   0.182   0.218   0.178   0.170   0.143   0.221   0.164   0.172   0.242   0.159   0.154   0.144   0.197   0.207   0.196   0.146   0.143   0.202   0.155   0.176   0.228   0.168   0.182   0.162   0.199   0.170   0.171   0.179   0.229   0.206   0.187   0.193   0.173   0.164   0.144   0.180   0.229   0.178   0.157   0.208   0.153   0.179   0.241   0.196   0.137   0.203   0.158
   291.00    0.171   0.241   0.280   0.262   0.176   0.146   0.166   0.207   0.163   0.146   0.174   0.198   0.230   0.192   0.212   0.276   0.210   0.156   0.206   0.208   0.190   0.175   0.215   0.158   0.155   0.203   0.136   0.192   0.255   0.240   0.191   0.195   0.185   0.174   0.204   0.172   0.220   0.270   0.254   0.156   0.159   0.158   0.172   0.152   0.213   0.139   0.142   0.147   0.175   0.164   0.203   0.242   0.177   0.178   0.239   0.199   0.217   0.231   0.176   0.183   0.209   0.182   0.194   0.168   0.157   0.230   0.247   0.158   0.193   0.194   0.145   0.161   0.196   0.232   0.183   0.214   0.135   0.198   0.160   0.183   0.250   0.250   0.144   0.178   0.213   0.169   0.155   0.225   0.256   0.214   0.142
   286.00    0.178   0.188   0.195   0.188   0.162   0.176   0.214   0.217   0.166   0.194   0.171   0.213   0.226   0.176   0.186   0.243   0.258   0.172   0.176   0.167   0.194   0.157   0.153   0.218   0.253   0.169   0.202   0.155   0.203   0.184   0.160   0.200   0.157   0.170   0.188   0.142   0.201   0.180   0.245   0.156   0.223   0.283   0.187   0.175   0.233   0.222   0.195   0.191   0.162   0.238   0.185   0.229   0.133   0.241   0.257   0.208   0.159   0.146   0.150   0.186   0.206   0.277   0.314   0.198   0.172   0.233   0.210   0.201   0.128   0.168   0.197   0.151   0.193   0.209   0.210   0.278   0.146   0.253   0.204   0.146   0.157   0.181   0.217   0.255   0.230   0.248   0.167   0.226   0.147   0.184   0.245
   281.00    0.168   0.191   0.212   0.177   0.202   0.165   0.165   0.150   0.199   0.138   0.176   0.191   0.187   0.190   0.157   0.177   0.198   0.133   0.157   0.197   0.149   0.227   0.181   0.203   0.208   0.166   0.219   0.237   0.168   0.189   0.225   0.193   0.157   0.237   0.201   0.151   0.162   0.169   0.222   0.218   0.217   0.169   0.223   0.253   0.299   0.269   0.128   0.148   0.173   0.238   0.256   0.236   0.204   0.236   0.242   0.254   0.126   0.156   0.162   0.169   0.183   0.193   0.222   0.255   0.183   0.231   0.144   0.226   0.284   0.126   0.220   0.186   0.186   0.138   0.201   0.254   0.243   0.268   0.258   0.124   0.151   0.173   0.188   0.228   0.211   0.180   0.176   0.162   0.242   0.277   0.175
   276.00    0.197   0.157   0.133   0.171   0.177   0.140   0.194   0.197   0.178   0.181   0.138   0.189   0.136   0.145   0.193   0.149   0.233   0.203   0.156   0.203   0.225   0.196   0.179   0.167   0.132   0.180   0.204   0.190   0.195   0.170   0.190   0.207   0.186   0.265   0.217   0.281   0.154   0.210   0.262   0.150   0.153   0.165   0.148   0.201   0.286   0.143   0.140   0.225   0.153   0.189   0.163   0.177   0.154   0.167   0.213   0.152   0.218   0.193   0.184   0.140   0.195   0.126   0.135   0.203   0.211   0.192   0.177   0.194   0.214   0.253   0.238   0.123   0.166   0.249   0.205   0.173   0.158   0.185   0.216   0.246   0.200   0.234   0.134   0.162   0.171   0.167   0.152   0.189   0.174   0.229   0.169
   271.00    0.179   0.174   0.233   0.130   0.189   0.216   0.197   0.150   0.178   0.177   0.165   0.192   0.181   0.191   0.161   0.213   0.239   0.154   0.206   0.189   0.231   0.124   0.173   0.197   0.196   0.187   0.170   0.187   0.158   0.271   0.291   0.186   0.165   0.214   0.253   0.281   0.258   0.137   0.188   0.218   0.283   0.260   0.206   0.174   0.229   0.278   0.206   0.266   0.150   0.172   0.128   0.172   0.171   0.160   0.209   0.246   0.193   0.169   0.219   0.231   0.278   0.136   0.245   0.265   0.261   0.270   0.163   0.140   0.179   0.222   0.172   0.159   0.208   0.240   0.223   0.252   0.234   0.155   0.164   0.178   0.199   0.194   0.197   0.217   0.238   0.217   0.272   0.286   0.169   0.157   0.184
   266.00    0.182   0.158   0.176   0.276   0.252   0.201   0.232   0.162   0.183   0.147   0.162   0.213   0.209   0.140   0.174   0.232   0.193   0.155   0.225   0.292   0.316   0.191   0.147   0.150   0.189   0.139   0.187   0.182   0.216   0.279   0.324   0.362   0.285   0.154   0.151   0.252   0.154   0.255   0.198   0.173   0.255   0.318   0.159   0.122   0.182   0.194   0.171   0.184   0.183   0.184   0.160   0.184   0.211   0.186   0.232   0.213   0.147   0.167   0.189   0.134   0.207   0.205   0.195   0.216   0.252   0.186   0.132   0.217   0.216   0.230   0.156   0.219   0.260   0.243   0.144   0.196   0.260   0.224   0.246   0.202   0.154   0.162   0.186   0.193   0.158   0.187   0.204   0.248   0.183   0.148   0.196
   261.00    0.222   0.184   0.284   0.326   0.268   0.170   0.231   0.287   0.163   0.206   0.169   0.248   0.239   0.245   0.242   0.253   0.233   0.257   0.197   0.266   0.203   0.215   0.242   0.224   0.138   0.199   0.142   0.214   0.181   0.243   0.304   0.268   0.298   0.299   0.219   0.268   0.216   0.230   0.227   0.184   0.230   0.253   0.270   0.168   0.182   0.242   0.168   0.230   0.165   0.152   0.162   0.161   0.181   0.206   0.178   0.208   0.247   0.251   0.133   0.180   0.226   0.192   0.120   0.166   0.181   0.229   0.199   0.223   0.229   0.215   0.136   0.151   0.182   0.182   0.128   0.202   0.206   0.210   0.242   0.170   0.162   0.219   0.164   0.143   0.185   0.151   0.156   0.198   0.175   0.203   0.137
   256.00    0.186   0.158   0.295   0.315   0.160   0.145   0.196   0.195   0.215   0.257   0.259   0.230   0.194   0.197   0.194   0.170   0.161   0.209   0.177   0.210   0.254   0.148   0.177   0.264   0.114   0.140   0.191   0.177   0.215   0.241   0.224   0.267   0.193   0.238   0.135   0.197   0.174   0.217   0.219   0.199   0.196   0.161   0.205   0.207   0.170   0.181   0.240   0.215   0.150   0.196   0.234   0.167   0.191   0.158   0.178   0.200   0.168   0.138   0.184   0.177   0.172   0.189   0.204   0.173   0.146   0.185   0.249   0.167   0.181   0.152   0.169   0.228   0.254   0.170   0.172   0.229   0.149   0.198   0.213   0.209   0.248   0.162   0.204   0.261   0.181   0.140   0.183   0.139   0.176   0.149   0.171
   251.00    0.248   0.203   0.303   0.333   0.290   0.159   0.182   0.197   0.170   0.220   0.223   0.143   0.214   0.224   0.177   0.166   0.169   0.181   0.203   0.165   0.202   0.181   0.200   0.247   0.237   0.164   0.180   0.186   0.163   0.171   0.173   0.171   0.208   0.192   0.216   0.211   0.182   0.211   0.143   0.182   0.154   0.157   0.162   0.180   0.209   0.155   0.179   0.198   0.146   0.177   0.169   0.187   0.199   0.184   0.152   0.216   0.259   0.237   0.149   0.163   0.194   0.197   0.183   0.176   0.224   0.175   0.170   0.202   0.160   0.219   0.178   0.198   0.265   0.260   0.155   0.231   0.227   0.168   0.155   0.245   0.279   0.203   0.142   0.166   0.207   0.188   0.166   0.179   0.166   0.194   0.143
   246.00    0.225   0.175   0.309   0.329   0.201   0.177   0.184   0.188   0.162   0.164   0.183   0.182   0.232   0.216   0.190   0.161   0.140   0.239   0.212   0.150   0.163   0.184   0.158   0.162   0.161   0.186   0.158   0.247   0.126   0.187   0.126   0.176   0.143   0.217   0.177   0.174   0.245   0.289   0.228   0.169   0.171   0.148   0.235   0.169   0.293   0.191   0.126   0.185   0.138   0.230   0.138   0.188   0.160   0.200   0.233   0.208   0.225   0.175   0.218   0.151   0.218   0.162   0.200   0.198   0.172   0.195   0.166   0.215   0.210   0.224   0.188   0.210   0.213   0.201   0.248   0.303   0.175   0.149   0.227   0.247   0.195   0.207   0.198   0.202   0.232   0.141   0.184   0.132   0.230   0.247   0.248
   241.00    0.294   0.333   0.343   0.300   0.264   0.144   0.164   0.144   0.172   0.172   0.181   0.218   0.153   0.220   0.157   0.176   0.194   0.238   0.197   0.250   0.181   0.147   0.183   0.142   0.211   0.148   0.179   0.233   0.217   0.167   0.232   0.256   0.230   0.123   0.209   0.187   0.216   0.192   0.216   0.147   0.192   0.157   0.202   0.264   0.322   0.264   0.250   0.149   0.205   0.251   0.141   0.216   0.258   0.154   0.178   0.230   0.215   0.181   0.208   0.142   0.198   0.156   0.153   0.194   0.164   0.193   0.170   0.171   0.229   0.205   0.181   0.142   0.183   0.153   0.227   0.274   0.280   0.169   0.210   0.202   0.237   0.263   0.169   0.217   0.176   0.202   0.144   0.198   0.223   0.183   0.184
   236.00    0.264   0.306   0.318   0.236   0.266   0.271   0.142   0.165   0.139   0.181   0.188   0.224   0.232   0.232   0.129   0.179   0.138   0.201   0.167   0.209   0.141   0.236   0.174   0.167   0.210   0.171   0.171   0.229   0.210   0.139   0.197   0.197   0.201   0.169   0.158   0.206   0.216   0.177   0.153   0.196   0.184   0.172   0.200   0.245   0.272   0.293   0.148   0.182   0.171   0.208   0.195   0.218   0.222   0.238   0.231   0.210   0.146   0.219   0.227   0.208   0.211   0.246   0.256   0.217   0.149   0.195   0.196   0.156   0.225   0.232   0.291   0.225   0.221   0.191   0.203   0.257   0.232   0.186   0.233   0.199   0.228   0.212   0.149   0.212   0.249   0.221   0.209   0.224   0.240   0.136   0.182
   231.00    0.201   0.266   0.299   0.230   0.190   0.212   0.267   0.144   0.245   0.150   0.177   0.261   0.197   0.148   0.233   0.230   0.270   0.173   0.129   0.159   0.257   0.292   0.303   0.162   0.149   0.192   0.201   0.164   0.188   0.197   0.168   0.162   0.169   0.178   0.154   0.173   0.214   0.200   0.200   0.181   0.193   0.158   0.161   0.257   0.231   0.254   0.267   0.127   0.153   0.151   0.153   0.190   0.191   0.194   0.155   0.205   0.230   0.238   0.225   0.129   0.258   0.308   0.230   0.146   0.164   0.184   0.180   0.152   0.173   0.193   0.227   0.225   0.178   0.186   0.247   0.271   0.181   0.192   0.215   0.250   0.210   0.199   0.156   0.174   0.174   0.171   0.211   0.228   0.173   0.158   0.174
   226.00    0.208   0.218   0.224   0.222   0.153   0.170   0.201   0.240   0.242   0.168   0.234   0.302   0.191   0.260   0.219   0.278   0.283   0.184   0.253   0.294   0.252   0.220   0.195   0.225   0.182   0.154   0.193   0.137   0.193   0.192   0.185   0.139   0.172   0.194   0.174   0.222   0.160   0.211   0.146   0.148   0.180   0.158   0.172   0.224   0.310   0.257   0.287   0.164   0.150   0.237   0.257   0.152   0.190   0.203   0.192   0.195   0.184   0.245   0.125   0.187   0.248   0.304   0.161   0.125   0.188   0.229   0.225   0.175   0.224   0.123   0.147   0.152   0.168   0.184   0.177   0.202   0.201   0.172   0.211   0.152   0.186   0.159   0.220   0.166   0.263   0.268   0.236   0.200   0.159   0.134   0.162
   221.00    0.259   0.144   0.130   0.202   0.255   0.232   0.175   0.201   0.218   0.217   0.256   0.307   0.181   0.182   0.248   0.260   0.286   0.282   0.241   0.228   0.198   0.218   0.163   0.224   0.116   0.160   0.189   0.193   0.235   0.165   0.196   0.219   0.112   0.163   0.172   0.271   0.182   0.125   0.192   0.272   0.304   0.246   0.277   0.239   0.280   0.257   0.257   0.214   0.280   0.251   0.192   0.168   0.210   0.165   0.157   0.166   0.181   0.205   0.178   0.196   0.281   0.298   0.252   0.246   0.232   0.190   0.186   0.192   0.185   0.166   0.203   0.258   0.128   0.165   0.204   0.136   0.213   0.213   0.229   0.124   0.195   0.181   0.188   0.245   0.314   0.215   0.145   0.178   0.164   0.226   0.170
   216.00    0.263   0.282   0.177   0.220   0.227   0.175   0.210   0.200   0.208   0.233   0.255   0.292   0.197   0.164   0.171   0.243   0.250   0.212   0.157   0.166   0.139   0.143   0.182   0.156   0.201   0.188   0.223   0.235   0.209   0.217   0.213   0.204   0.241   0.201   0.192   0.292   0.243   0.220   0.178   0.199   0.247   0.246   0.213   0.216   0.202   0.238   0.218   0.189   0.253   0.190   0.143   0.153   0.187   0.146   0.196   0.142   0.183   0.173   0.125   0.154   0.241   0.257   0.131   0.157   0.145   0.183   0.147   0.230   0.125   0.196   0.219   0.216   0.234   0.196   0.271   0.268   0.215   0.161   0.179   0.227   0.208   0.178   0.210   0.171   0.257   0.242   0.200   0.166   0.191   0.146   0.179
   211.00    0.210   0.268   0.281   0.153   0.193   0.156   0.160   0.165   0.186   0.210   0.200   0.228   0.279   0.213   0.168   0.222   0.219   0.131   0.158   0.190   0.162   0.159   0.170   0.197   0.128   0.162   0.202   0.135   0.174   0.161   0.205   0.147   0.221   0.262   0.242   0.276   0.221   0.129   0.193   0.238   0.154   0.233   0.180   0.161   0.235   0.267   0.148   0.182   0.184   0.214   0.201   0.208   0.171   0.271   0.266   0.150   0.151   0.150   0.205   0.236   0.178   0.247   0.203   0.232   0.243   0.172   0.199   0.180   0.185   0.174   0.204   0.199   0.217   0.167   0.244   0.260   0.209   0.186   0.181   0.169   0.176   0.145   0.198   0.233   0.257   0.177   0.196   0.228   0.184   0.178   0.177
   206.00    0.157   0.211   0.240   0.157   0.180   0.165   0.166   0.189   0.136   0.165   0.203   0.167   0.237   0.175   0.194   0.209   0.158   0.212   0.176   0.154   0.196   0.124   0.212   0.150   0.211   0.194   0.213   0.228   0.161   0.196   0.205   0.166   0.236   0.249   0.177   0.233   0.230   0.209   0.161   0.176   0.137   0.168   0.166   0.180   0.163   0.219   0.216   0.171   0.150   0.156   0.182   0.207   0.174   0.250   0.233   0.238   0.226   0.151   0.237   0.200   0.175   0.225   0.222   0.131   0.194   0.160   0.167   0.166   0.184   0.136   0.152   0.216   0.234   0.131   0.177   0.214   0.210   0.192   0.254   0.182   0.198   0.185   0.211   0.166   0.204   0.185   0.178   0.200   0.157   0.233   0.167
   201.00    0.223   0.211   0.280   0.288   0.179   0.157   0.207   0.135   0.166   0.158   0.186   0.210   0.203   0.283   0.216   0.177   0.195   0.174   0.196   0.216   0.151   0.179   0.137   0.182   0.201   0.173   0.140   0.172   0.132   0.205   0.240   0.252   0.208   0.196   0.243   0.183   0.165   0.192   0.155   0.174   0.166   0.180   0.187   0.175   0.137   0.181   0.181   0.153   0.131   0.195   0.162   0.142   0.200   0.183   0.264   0.259   0.147   0.233   0.212   0.204   0.167   0.219   0.219   0.182   0.228   0.151   0.186   0.169   0.191   0.171   0.208   0.149   0.163   0.171   0.190   0.162   0.166   0.195   0.273   0.299   0.131   0.242   0.274   0.155   0.179   0.123   0.179   0.241   0.260   0.263   0.256
   196.00    0.208   0.223   0.167   0.259   0.128   0.158   0.197   0.176   0.191   0.162   0.217   0.146   0.220   0.264   0.189   0.187   0.201   0.154   0.175   0.311   0.175   0.133   0.193   0.160   0.147   0.148   0.212   0.164   0.158   0.207   0.228   0.219   0.219   0.162   0.190   0.169   0.213   0.246   0.209   0.166   0.190   0.164   0.135   0.250   0.145   0.247   0.244   0.206   0.205   0.197   0.243   0.260   0.119   0.217   0.271   0.278   0.247   0.190   0.218   0.177   0.189   0.267   0.158   0.253   0.228   0.140   0.167   0.170   0.139   0.192   0.187   0.228   0.161   0.165   0.193   0.192   0.184   0.211   0.217   0.233   0.198   0.191   0.234   0.217   0.175   0.236   0.150   0.170   0.202   0.236   0.246
   191.00    0.156   0.211   0.272   0.217   0.205   0.184   0.155   0.155   0.185   0.208   0.204   0.198   0.191   0.229   0.176   0.173   0.174   0.207   0.274   0.329   0.346   0.157   0.219   0.243   0.207   0.204   0.186   0.175   0.146   0.193   0.210   0.147   0.186   0.171   0.139   0.212   0.165   0.191   0.148   0.155   0.198   0.152   0.244   0.260   0.314   0.243   0.136   0.219   0.177   0.158   0.168   0.210   0.195   0.221   0.173   0.225   0.163   0.220   0.183   0.159   0.201   0.207   0.264   0.268   0.153   0.142   0.255   0.158   0.206   0.167   0.175   0.173   0.161   0.173   0.151   0.190   0.241   0.196   0.138   0.155   0.151   0.143   0.239   0.201   0.153   0.193   0.158   0.196   0.144   0.200   0.154
   186.00    0.169   0.188   0.190   0.230   0.144   0.153   0.188   0.171   0.203   0.181   0.185   0.131   0.163   0.230   0.160   0.165   0.181   0.186   0.177   0.244   0.275   0.248   0.195   0.253   0.281   0.211   0.204   0.178   0.152   0.199   0.205   0.138   0.204   0.275   0.259   0.263   0.136   0.175   0.190   0.171   0.192   0.168   0.264   0.153   0.226   0.285   0.269   0.246   0.136   0.134   0.160   0.183   0.199   0.203   0.152   0.212   0.289   0.173   0.163   0.209   0.192   0.147   0.205   0.220   0.149   0.246   0.278   0.197   0.213   0.151   0.192   0.159   0.201   0.165   0.169   0.141   0.168   0.182   0.199   0.161   0.152   0.197   0.254   0.283   0.139   0.153   0.142   0.158   0.216   0.147   0.216
   181.00    0.222   0.248   0.167   0.169   0.201   0.203   0.190   0.139   0.171   0.195   0.182   0.202   0.195   0.254   0.194   0.165   0.193   0.203   0.166   0.191   0.220   0.232   0.128   0.176   0.240   0.236   0.191   0.161   0.193   0.166   0.213   0.212   0.144   0.191   0.239   0.212   0.152   0.178   0.183   0.169   0.182   0.201   0.235   0.219   0.201   0.230   0.239   0.209   0.177   0.197   0.195   0.153   0.220   0.161   0.164   0.206   0.247   0.167   0.197   0.166   0.174   0.194   0.160   0.195   0.253   0.231   0.312   0.216   0.165   0.156   0.160   0.222   0.164   0.169   0.231   0.208   0.203   0.147   0.155   0.203   0.180   0.194   0.254   0.189   0.279   0.203   0.190   0.218   0.214   0.140   0.180
   176.00    0.278   0.200   0.184   0.234   0.173   0.203   0.223   0.190   0.122   0.133   0.219   0.198   0.193   0.139   0.215   0.256   0.162   0.154   0.213   0.250   0.175   0.188   0.220   0.190   0.241   0.163   0.218   0.196   0.140   0.240   0.223   0.179   0.151   0.153   0.188   0.256   0.223   0.207   0.149   0.175   0.156   0.203   0.243   0.187   0.273   0.254   0.156   0.172   0.172   0.183   0.202   0.261   0.191   0.191   0.180   0.213   0.231   0.166   0.166   0.207   0.219   0.163   0.157   0.188   0.203   0.250   0.257   0.289   0.232   0.184   0.193   0.190   0.189   0.217   0.193   0.162   0.195   0.215   0.165   0.245   0.152   0.198   0.246   0.227   0.283   0.214   0.151   0.202   0.150   0.181   0.201
[...]
   126.00    0.177   0.135   0.144   0.146   0.182   0.238   0.157   0.221   0.125   0.163   0.165   0.134   0.132   0.152   0.140   0.198   0.187   0.129   0.142   0.158   0.157   0.171   0.198   0.171   0.163   0.188   0.130   0.130   0.158   0.163   0.181   0.195   0.143   0.139   0.159   0.145   0.145   0.195   0.128   0.174   0.157   0.136   0.176   0.119   0.147   0.184   0.183   0.200   0.222   0.139   0.152   0.145   0.177   0.160   0.159   0.169   0.209   0.186   0.185   0.162   0.153   0.134   0.149   0.148   0.166   0.192   0.202   0.158   0.202   0.108   0.175   0.140   0.202   0.220   0.175   0.149   0.161   0.141   0.155   0.123   0.187   0.154   0.156   0.145   0.136   0.161   0.153   0.172   0.119   0.153   0.192
   121.00    0.195   0.137   0.171   0.149   0.168   0.217   0.218   0.226   0.145   0.141   0.124   0.167   0.202   0.125   0.125   0.155   0.172   0.193   0.119   0.169   0.131   0.182   0.138   0.184   0.184   0.187   0.169   0.157   0.182   0.126   0.190   0.165   0.156   0.153   0.185   0.164   0.194   0.204   0.196   0.198   0.116   0.204   0.158   0.155   0.132   0.166   0.132   0.125   0.151   0.153   0.140   0.138   0.128   0.161   0.184   0.161   0.194   0.167   0.156   0.130   0.185   0.135   0.172   0.168   0.191   0.173   0.172   0.128   0.158   0.194   0.181   0.133   0.149   0.158   0.151   0.160   0.194   0.141   0.167   0.136   0.173   0.137   0.164   0.140   0.149   0.163   0.106   0.135   0.156   0.120   0.191
   116.00    0.179   0.171   0.199   0.156   0.130   0.173   0.162   0.194   0.179   0.132   0.156   0.118   0.165   0.184   0.211   0.168   0.128   0.164   0.211   0.147   0.163   0.159   0.204   0.121   0.155   0.184   0.179   0.152   0.160   0.168   0.174   0.138   0.151   0.146   0.144   0.126   0.162   0.142   0.149   0.153   0.171   0.181   0.193   0.176   0.142   0.200   0.113   0.131   0.121   0.136   0.161   0.127   0.161   0.209   0.202   0.146   0.152   0.147   0.153   0.164   0.131   0.196   0.194   0.146   0.161   0.137   0.143   0.158   0.164   0.156   0.185   0.140   0.114   0.152   0.108   0.124   0.140   0.154   0.171   0.134   0.148   0.142   0.168   0.158   0.170   0.167   0.205   0.167   0.125   0.164   0.188
   111.00    0.169   0.142   0.160   0.182   0.204   0.154   0.149   0.149   0.191   0.175   0.134   0.150   0.150   0.150   0.165   0.169   0.159   0.141   0.159   0.202   0.139   0.178   0.156   0.125   0.144   0.187   0.141   0.113   0.182   0.138   0.128   0.127   0.130   0.135   0.135   0.141   0.133   0.154   0.143   0.149   0.163   0.168   0.145   0.152   0.159   0.167   0.204   0.189   0.201   0.156   0.192   0.150   0.146   0.187   0.231   0.178   0.155   0.179   0.142   0.149   0.130   0.138   0.146   0.127   0.146   0.149   0.155   0.151   0.165   0.141   0.129   0.154   0.138   0.177   0.207   0.190   0.184   0.196   0.162   0.184   0.171   0.149   0.152   0.175   0.175   0.143   0.196   0.143   0.152   0.132   0.137
   106.00    0.151   0.139   0.142   0.196   0.147   0.178   0.182   0.147   0.218   0.191   0.125   0.163   0.131   0.208   0.218   0.191   0.168   0.150   0.176   0.184   0.151   0.177   0.120   0.137   0.161   0.205   0.166   0.200   0.197   0.128   0.159   0.166   0.149   0.167   0.144   0.177   0.150   0.144   0.151   0.154   0.157   0.142   0.164   0.145   0.151   0.133   0.159   0.145   0.161   0.157   0.169   0.212   0.141   0.186   0.212   0.163   0.142   0.179   0.202   0.174   0.171   0.122   0.120   0.158   0.196   0.154   0.132   0.199   0.143   0.166   0.141   0.186   0.172   0.203   0.157   0.144   0.142   0.176   0.119   0.168   0.171   0.134   0.159   0.146   0.149   0.142   0.177   0.226   0.162   0.153   0.158
   101.00    0.173   0.116   0.166   0.217   0.146   0.163   0.154   0.211   0.245   0.182   0.141   0.144   0.147   0.190   0.176   0.138   0.137   0.151   0.157   0.169   0.155   0.186   0.170   0.139   0.175   0.190   0.170   0.144   0.188   0.107   0.139   0.178   0.180   0.197   0.124   0.148   0.157   0.122   0.154   0.189   0.171   0.178   0.108   0.157   0.173   0.159   0.144   0.155   0.165   0.148   0.132   0.187   0.246   0.140   0.182   0.132   0.139   0.153   0.171   0.153   0.194   0.170   0.183   0.145   0.173   0.174   0.158   0.166   0.197   0.137   0.173   0.194   0.187   0.197   0.130   0.157   0.156   0.144   0.159   0.187   0.121   0.125   0.152   0.156   0.160   0.138   0.179   0.168   0.199   0.128   0.133
    96.00    0.165   0.164   0.133   0.167   0.175   0.157   0.147   0.179   0.199   0.241   0.187   0.155   0.198   0.203   0.128   0.142   0.168   0.198   0.240   0.133   0.161   0.143   0.223   0.207   0.126   0.137   0.144   0.133   0.160   0.172   0.167   0.177   0.165   0.134   0.181   0.128   0.143   0.159   0.160   0.191   0.115   0.184   0.190   0.132   0.146   0.140   0.144   0.193   0.146   0.144   0.168   0.208   0.227   0.150   0.159   0.210   0.140   0.195   0.154   0.161   0.123   0.138   0.122   0.166   0.124   0.171   0.177   0.149   0.116   0.182   0.119   0.137   0.196   0.225   0.128   0.134   0.133   0.167   0.202   0.149   0.129   0.157   0.169   0.149   0.146   0.153   0.180   0.134   0.150   0.174   0.155
    91.00    0.158   0.161   0.137   0.118   0.164   0.157   0.167   0.129   0.179   0.189   0.179   0.200   0.209   0.179   0.129   0.138   0.142   0.182   0.218   0.205   0.129   0.160   0.222   0.229   0.199   0.156   0.126   0.184   0.156   0.169   0.170   0.165   0.148   0.210   0.177   0.128   0.159   0.133   0.179   0.179   0.144   0.178   0.186   0.124   0.124   0.168   0.141   0.162   0.200   0.198   0.135   0.160   0.158   0.163   0.206   0.183   0.165   0.186   0.209   0.122   0.135   0.163   0.187   0.138   0.165   0.181   0.121   0.162   0.195   0.213   0.108   0.161   0.201   0.200   0.143   0.205   0.132   0.157   0.169   0.135   0.162   0.133   0.130   0.157   0.123   0.122   0.133   0.186   0.170   0.140   0.172
    86.00    0.159   0.138   0.182   0.135   0.155   0.149   0.178   0.169   0.178   0.135   0.148   0.154   0.200   0.149   0.179   0.137   0.168   0.219   0.201   0.186   0.190   0.197   0.196   0.181   0.149   0.173   0.186   0.168   0.203   0.131   0.161   0.140   0.159   0.203   0.163   0.187   0.129   0.147   0.146   0.157   0.177   0.187   0.148   0.180   0.153   0.203   0.136   0.151   0.157   0.155   0.131   0.137   0.132   0.168   0.202   0.153   0.138   0.158   0.154   0.170   0.167   0.178   0.126   0.132   0.131   0.128   0.174   0.124   0.159   0.181   0.139   0.140   0.164   0.137   0.208   0.237   0.145   0.135   0.129   0.207   0.122   0.157   0.151   0.183   0.138   0.184   0.231   0.196   0.146   0.138   0.138
    81.00    0.141   0.198   0.240   0.153   0.175   0.160   0.166   0.117   0.137   0.124   0.140   0.150   0.190   0.125   0.166   0.199   0.143   0.178   0.148   0.152   0.136   0.203   0.157   0.172   0.142   0.174   0.189   0.142   0.185   0.165   0.224   0.143   0.146   0.170   0.181   0.150   0.161   0.127   0.170   0.154   0.159   0.153   0.218   0.142   0.149   0.176   0.157   0.168   0.132   0.135   0.208   0.254   0.229   0.198   0.208   0.127   0.141   0.173   0.189   0.131   0.172   0.156   0.156   0.187   0.159   0.179   0.147   0.151   0.164   0.147   0.144   0.116   0.130   0.153   0.172   0.223   0.211   0.135   0.190   0.201   0.177   0.154   0.162   0.161   0.159   0.155   0.208   0.174   0.136   0.131   0.143
    76.00    0.167   0.200   0.225   0.181   0.140   0.159   0.186   0.166   0.163   0.134   0.195   0.170   0.176   0.151   0.169   0.183   0.219   0.180   0.190   0.169   0.158   0.141   0.201   0.205   0.133   0.175   0.141   0.119   0.167   0.163   0.185   0.186   0.135   0.132   0.157   0.178   0.119   0.159   0.196   0.164   0.159   0.180   0.183   0.190   0.181   0.175   0.184   0.148   0.167   0.185   0.232   0.259   0.186   0.205   0.142   0.220   0.257   0.208   0.120   0.129   0.167   0.209   0.204   0.136   0.150   0.170   0.116   0.125   0.202   0.123   0.133   0.171   0.221   0.178   0.132   0.174   0.217   0.225   0.156   0.161   0.154   0.132   0.149   0.130   0.157   0.182   0.150   0.187   0.188   0.179   0.145
    71.00    0.130   0.161   0.158   0.153   0.156   0.113   0.142   0.177   0.170   0.185   0.175   0.155   0.152   0.137   0.153   0.180   0.180   0.167   0.167   0.157   0.151   0.230   0.173   0.184   0.119   0.166   0.145   0.205   0.168   0.149   0.166   0.125   0.186   0.154   0.114   0.121   0.162   0.162   0.167   0.171   0.146   0.146   0.151   0.160   0.158   0.170   0.197   0.181   0.186   0.171   0.210   0.207   0.199   0.150   0.173   0.226   0.239   0.242   0.156   0.158   0.195   0.166   0.192   0.173   0.132   0.176   0.161   0.199   0.217   0.213   0.154   0.193   0.242   0.229   0.129   0.146   0.168   0.185   0.162   0.116   0.158   0.125   0.145   0.176   0.160   0.152   0.129   0.148   0.147   0.190   0.130
    66.00    0.186   0.192   0.235   0.127   0.193   0.189   0.161   0.135   0.134   0.149   0.169   0.138   0.134   0.176   0.137   0.152   0.204   0.164   0.134   0.161   0.133   0.187   0.202   0.119   0.174   0.182   0.177   0.181   0.171   0.227   0.229   0.161   0.176   0.209   0.182   0.232   0.172   0.180   0.144   0.149   0.170   0.130   0.159   0.166   0.146   0.196   0.230   0.211   0.154   0.196   0.161   0.160   0.164   0.204   0.225   0.218   0.164   0.200   0.125   0.153   0.177   0.149   0.174   0.132   0.166   0.171   0.130   0.176   0.182   0.170   0.160   0.186   0.174   0.199   0.118   0.167   0.140   0.136   0.138   0.147   0.122   0.146   0.144   0.168   0.182   0.184   0.174   0.229   0.223   0.162   0.155
    61.00    0.223   0.248   0.251   0.167   0.202   0.133   0.136   0.137   0.142   0.155   0.202   0.160   0.141   0.149   0.140   0.184   0.227   0.136   0.175   0.153   0.192   0.134   0.180   0.202   0.200   0.149   0.194   0.150   0.119   0.176   0.190   0.119   0.137   0.199   0.178   0.179   0.161   0.190   0.232   0.150   0.159   0.136   0.176   0.132   0.118   0.161   0.226   0.208   0.212   0.224   0.156   0.153   0.195   0.234   0.208   0.170   0.182   0.169   0.146   0.134   0.176   0.191   0.166   0.137   0.139   0.138   0.175   0.150   0.152   0.145   0.142   0.125   0.190   0.155   0.111   0.150   0.182   0.210   0.199   0.225   0.217   0.167   0.200   0.195   0.148   0.177   0.144   0.177   0.185   0.181   0.164
    56.00    0.207   0.177   0.225   0.216   0.230   0.239   0.127   0.203   0.191   0.183   0.204   0.187   0.178   0.163   0.116   0.170   0.163   0.204   0.231   0.182   0.186   0.143   0.190   0.208   0.185   0.225   0.158   0.221   0.262   0.256   0.189   0.228   0.251   0.221   0.118   0.160   0.154   0.130   0.180   0.235   0.131   0.143   0.180   0.166   0.148   0.196   0.198   0.183   0.186   0.190   0.127   0.120   0.158   0.200   0.174   0.142   0.216   0.169   0.146   0.187   0.169   0.206   0.212   0.212   0.156   0.156   0.146   0.160   0.130   0.159   0.156   0.215   0.209   0.191   0.187   0.175   0.153   0.190   0.184   0.208   0.200   0.135   0.183   0.233   0.152   0.146   0.164   0.160   0.155   0.155   0.153
    51.00    0.199   0.219   0.249   0.185   0.176   0.192   0.182   0.211   0.168   0.153   0.171   0.168   0.151   0.151   0.211   0.240   0.147   0.209   0.173   0.143   0.129   0.177   0.175   0.161   0.155   0.193   0.196   0.236   0.264   0.281   0.253   0.171   0.229   0.227   0.167   0.180   0.148   0.191   0.248   0.250   0.243   0.207   0.163   0.114   0.158   0.169   0.164   0.170   0.182   0.157   0.152   0.166   0.183   0.191   0.133   0.137   0.164   0.211   0.228   0.227   0.135   0.149   0.185   0.198   0.140   0.154   0.179   0.183   0.174   0.194   0.184   0.194   0.208   0.150   0.137   0.156   0.150   0.170   0.149   0.127   0.154   0.130   0.149   0.154   0.178   0.200   0.114   0.162   0.134   0.123   0.189
    46.00    0.157   0.164   0.188   0.189   0.154   0.127   0.162   0.156   0.139   0.162   0.172   0.150   0.119   0.147   0.206   0.223   0.124   0.210   0.196   0.107   0.162   0.192   0.166   0.116   0.151   0.163   0.183   0.206   0.200   0.238   0.220   0.223   0.183   0.203   0.130   0.130   0.134   0.221   0.233   0.233   0.175   0.161   0.185   0.185   0.194   0.144   0.157   0.158   0.170   0.141   0.191   0.116   0.140   0.152   0.166   0.132   0.148   0.200   0.146   0.185   0.203   0.148   0.179   0.144   0.162   0.183   0.111   0.171   0.126   0.158   0.151   0.177   0.151   0.135   0.187   0.146   0.189   0.196   0.114   0.194   0.125   0.132   0.161   0.177   0.169   0.140   0.140   0.180   0.174   0.195   0.174
    41.00    0.160   0.185   0.150   0.134   0.139   0.169   0.170   0.155   0.129   0.143   0.125   0.173   0.204   0.191   0.172   0.184   0.167   0.211   0.206   0.170   0.119   0.191   0.124   0.205   0.134   0.128   0.184   0.186   0.195   0.227   0.147   0.166   0.169   0.193   0.160   0.155   0.168   0.186   0.224   0.182   0.152   0.162   0.173   0.139   0.176   0.128   0.144   0.191   0.126   0.158   0.139   0.191   0.240   0.177   0.189   0.158   0.133   0.149   0.186   0.202   0.226   0.138   0.182   0.187   0.178   0.151   0.158   0.180   0.142   0.219   0.140   0.146   0.128   0.198   0.210   0.135   0.164   0.158   0.145   0.167   0.179   0.197   0.124   0.166   0.194   0.170   0.146   0.180   0.135   0.164   0.172
    36.00    0.215   0.154   0.150   0.189   0.185   0.162   0.163   0.122   0.171   0.158   0.213   0.164   0.219   0.169   0.174   0.144   0.153   0.151   0.162   0.197   0.149   0.176   0.221   0.252   0.194   0.143   0.193   0.161   0.180   0.191   0.181   0.193   0.234   0.199   0.234   0.110   0.153   0.182   0.180   0.222   0.244   0.116   0.149   0.177   0.158   0.158   0.131   0.177   0.165   0.124   0.177   0.229   0.236   0.162   0.159   0.150   0.183   0.114   0.139   0.150   0.195   0.205   0.141   0.174   0.136   0.148   0.173   0.158   0.213   0.228   0.171   0.158   0.155   0.191   0.238   0.180   0.134   0.145   0.155   0.177   0.120   0.166   0.141   0.154   0.150   0.170   0.234   0.149   0.115   0.173   0.134
    31.00    0.187   0.199   0.170   0.159   0.160   0.158   0.145   0.166   0.195   0.215   0.234   0.224   0.229   0.188   0.186   0.113   0.155   0.129   0.136   0.162   0.128   0.155   0.158   0.202   0.205   0.202   0.192   0.193   0.164   0.185   0.136   0.175   0.180   0.172   0.188   0.221   0.146   0.171   0.163   0.201   0.229   0.136   0.138   0.133   0.133   0.145   0.142   0.148   0.157   0.164   0.149   0.220   0.196   0.200   0.107   0.137   0.173   0.139   0.177   0.208   0.148   0.188   0.213   0.134   0.179   0.150   0.225   0.216   0.198   0.197   0.120   0.152   0.152   0.219   0.216   0.177   0.143   0.146   0.202   0.189   0.195   0.154   0.180   0.129   0.176   0.185   0.192   0.191   0.177   0.187   0.127
    26.00    0.138   0.135   0.187   0.183   0.141   0.144   0.140   0.126   0.152   0.179   0.213   0.220   0.193   0.123   0.186   0.150   0.158   0.147   0.177   0.123   0.138   0.136   0.143   0.155   0.138   0.206   0.172   0.144   0.142   0.141   0.170   0.160   0.169   0.154   0.131   0.137   0.190   0.136   0.134   0.164   0.149   0.185   0.172   0.158   0.150   0.150   0.133   0.133   0.139   0.147   0.187   0.178   0.181   0.178   0.138   0.143   0.172   0.170   0.130   0.138   0.165   0.178   0.193   0.175   0.120   0.141   0.193   0.208   0.169   0.134   0.155   0.125   0.166   0.224   0.132   0.179   0.141   0.159   0.159   0.158   0.210   0.201   0.210   0.144   0.157   0.155   0.152   0.189   0.139   0.136   0.147
    21.00    0.153   0.148   0.147   0.170   0.152   0.168   0.175   0.170   0.149   0.169   0.137   0.142   0.139   0.149   0.158   0.170   0.146   0.177   0.178   0.141   0.161   0.161   0.142   0.192   0.181   0.254   0.152   0.130   0.131   0.171   0.126   0.177   0.174   0.135   0.173   0.147   0.159   0.154   0.153   0.183   0.194   0.136   0.131   0.162   0.114   0.135   0.134   0.144   0.130   0.134   0.165   0.158   0.178   0.218   0.115   0.122   0.151   0.149   0.185   0.195   0.120   0.117   0.137   0.118   0.144   0.211   0.270   0.135   0.179   0.146   0.196   0.215   0.129   0.190   0.191   0.153   0.154   0.149   0.135   0.141   0.168   0.166   0.198   0.197   0.162   0.140   0.143   0.183   0.149   0.154   0.145
    16.00    0.136   0.149   0.114   0.138   0.141   0.137   0.120   0.145   0.194   0.220   0.153   0.195   0.209   0.157   0.142   0.154   0.164   0.143   0.196   0.244   0.162   0.124   0.171   0.118   0.214   0.220   0.247   0.233   0.203   0.187   0.153   0.158   0.188   0.138   0.145   0.154   0.145   0.138   0.161   0.161   0.140   0.164   0.149   0.186   0.227   0.121   0.132   0.148   0.193   0.160   0.184   0.172   0.212   0.220   0.187   0.176   0.115   0.143   0.145   0.154   0.169   0.184   0.210   0.142   0.127   0.193   0.242   0.240   0.189   0.174   0.159   0.154   0.194   0.138   0.137   0.156   0.147   0.164   0.124   0.176   0.183   0.154   0.165   0.167   0.173   0.130   0.155   0.156   0.138   0.132   0.138
    11.00    0.204   0.178   0.146   0.162   0.171   0.161   0.209   0.191   0.195   0.251   0.226   0.185   0.137   0.123   0.174   0.179   0.168   0.119   0.153   0.205   0.223   0.199   0.209   0.186   0.194   0.208   0.214   0.177   0.159   0.127   0.148   0.129   0.133   0.145   0.151   0.175   0.202   0.127   0.143   0.151   0.148   0.147   0.141   0.183   0.207   0.163   0.211   0.202   0.171   0.132   0.166   0.120   0.205   0.212   0.192   0.139   0.169   0.133   0.140   0.154   0.169   0.212   0.166   0.196   0.157   0.173   0.200   0.202   0.147   0.136   0.126   0.147   0.149   0.175   0.149   0.152   0.151   0.189   0.146   0.175   0.128   0.133   0.153   0.128   0.144   0.148   0.169   0.157   0.140   0.184   0.140
     6.00    0.188   0.154   0.132   0.147   0.158   0.188   0.196   0.126   0.171   0.223   0.233   0.216   0.206   0.124   0.173   0.157   0.172   0.138   0.166   0.186   0.176   0.147   0.180   0.162   0.134   0.147   0.136   0.197   0.117   0.128   0.165   0.144   0.159   0.161   0.201   0.137   0.176   0.161   0.148   0.157   0.134   0.144   0.149   0.133   0.175   0.186   0.167   0.199   0.139   0.162   0.131   0.144   0.173   0.180   0.186   0.154   0.146   0.159   0.142   0.148   0.217   0.195   0.217   0.160   0.133   0.159   0.155   0.186   0.142   0.142   0.201   0.150   0.117   0.142   0.145   0.153   0.175   0.140   0.162   0.140   0.196   0.187   0.140   0.167   0.132   0.177   0.198   0.120   0.145   0.141   0.148
     1.00    0.170   0.129   0.152   0.167   0.137   0.175   0.198   0.203   0.200   0.215   0.141   0.180   0.153   0.193   0.156   0.141   0.168   0.177   0.181   0.161   0.136   0.140   0.181   0.198   0.122   0.151   0.129   0.161   0.181   0.183   0.124   0.159   0.148   0.142   0.142   0.176   0.131   0.144   0.180   0.163   0.202   0.121   0.154   0.198   0.211   0.194   0.139   0.161   0.193   0.137   0.146   0.147   0.141   0.180   0.130   0.179   0.144   0.161   0.127   0.159   0.203   0.211   0.158   0.173   0.189   0.165   0.141   0.154   0.192   0.202   0.201   0.198   0.218   0.145   0.134   0.147   0.173   0.130   0.166   0.125   0.155   0.184   0.118   0.160   0.155   0.153   0.183   0.153   0.138   0.172   0.151

   Mean standard deviation across all grid points:
      u component:    0.178 m/s
      v component:    0.199 m/s
      w component:    0.167 m/s


U-component (X) statistics from the interpolated hub point:

   Mean =   8.9787 m/s
   TI   =   2.1885 %


Processing complete.  75.359 CPU seconds used.
