
This summary file was generated by TurbSim on 28-Jul-2023 at 11:52:39.


Runtime Options:

     64161  Random seed #1
    RANLUX  Type of random number generator
         F  Output binary HH turbulence parameters?
         F  Output formatted turbulence parameters?
         F  Output AeroDyn HH files?
         T  Output AeroDyn FF files?
         F  Output BLADED FF files?
         F  Output tower data?
         F  Output formatted FF files?
         F  Output coherent turbulence time step file?
         T  Clockwise rotation when looking downwind?
 0 -  NONE  IEC turbulence models scaled to exact specified standard deviation


Turbine/Model Specifications:

         7  Vertical grid-point matrix dimension
        25  Horizontal grid-point matrix dimension
     0.500  Time step [seconds]
    10.000  Analysis time [seconds]
    10.000  Usable output time [seconds]
   106.000  Hub height [m]
   210.000  Grid height [m]
   840.000  Grid width [m]
     0.000  Vertical flow angle [degrees]
     0.000  Horizontal flow angle [degrees]


Meteorological Boundary Conditions:

    IECKAI  IEC Kaimal spectral model
         1  IEC standard: IEC 61400-1 Ed. 3: 2005
     6.000  Percent turbulence intensity, IEC 61400-1 Ed. 3: 2005
       NTM  IEC Normal Turbulence Model
       N/A  IEC Extreme Turbulence Model (ETM) "c" parameter [m/s]
       PL   Wind profile type
    87.600  Reference height [m]
     8.000  Reference wind speed [m/s]
       N/A  Jet height [m]
     0.200  Power law exponent
     0.030  Surface roughness length [m]


Non-IEC Meteorological Boundary Conditions:

       N/A  Site latitude [degrees]
       N/A  Gradient Richardson number
       N/A  Friction or shear velocity [m/s]
       N/A  Mixing layer depth [m]
       N/A  Mean hub u'w' Reynolds stress
       N/A  Mean hub u'v' Reynolds stress
       N/A  Mean hub v'w' Reynolds stress


Spatial Coherence Models:

       IEC  u-component coherence model
       IEC  v-component coherence model
       IEC  w-component coherence model
(   12.000, 0.353E-03)  u-component coherence parameters
(   12.000, 0.353E-03)  v-component coherence parameters
(   12.000, 0.353E-03)  w-component coherence parameters
       N/A  Coherence exponent


You have requested that the following file(s) be generated:

   D:\data\40_mahfouz\github\repo\r-test\glue-codes\fast-farm\ModAmb_3\Cond00_v08.0_PL0.2_TI6\Seed_0\Low.bts (AeroDyn/TurbSim full-field wind file)


Turbulence Simulation Scaling Parameter Summary:

   Turbulence model used                            =  IEC Kaimal
   Turbulence characteristic                        =  User-specified
   IEC standard                                     =  IEC 61400-1 Ed. 3: 2005
   Mean wind speed at hub height                    =    8.311 m/s
   Characteristic value of standard deviation       =    0.499 m/s
   Turbulence scale                                 =   42.000 m
   u-component integral scale                       =  340.200 m
   Coherency scale                                  =  340.200 m
   Characteristic value of hub turbulence intensity =    6.000%
   Gradient Richardson number                       =    0.000

   Wind profile type                                =  Power law
   Power law exponent                               =    0.200
   Mean shear across rotor disk                     =    0.030 (m/s)/m
   Assumed rotor diameter                           =  210.000 m
   Surface roughness length                         =    0.030 m

   Nyquist frequency of turbulent wind field        =    1.000 Hz

   Number of time steps in the FFT                  =       20
   Number of time steps output                      =       20
   Number of points simulated                       =      175


Mean Flow Angles:

   Vertical   =   0.0 degrees
   Horizontal =   0.0 degrees

Mean Wind Speed Profile:

   Height    Wind Speed   Horizontal Angle  Vertical Angle  U-comp (X)   V-comp (Y)   W-comp (Z)
     (m)        (m/s)         (degrees)       (degrees)       (m/s)        (m/s)        (m/s)   
   ------    ----------   ----------------  --------------  ----------   ----------   ----------
    211.0        9.54            0.00            0.00          9.54         0.00         0.00
    176.0        9.20            0.00            0.00          9.20         0.00         0.00
    141.0        8.80            0.00            0.00          8.80         0.00         0.00
    106.0        8.31            0.00            0.00          8.31         0.00         0.00
     71.0        7.67            0.00            0.00          7.67         0.00         0.00
     36.0        6.70            0.00            0.00          6.70         0.00         0.00
      1.0        3.27            0.00            0.00          3.27         0.00         0.00


Harvested Random Seeds after Generation of the Random Numbers:

        48632 K 1
            0 K 2


Hub-Height Simulated Turbulence Statistical Summary:

   Type of Wind        Min (m/s)   Mean (m/s)    Max (m/s)  Sigma (m/s)       TI (%)
   ----------------    ---------   ----------    ---------  -----------       ------
   Longitudinal (u)         8.03         8.31         8.57        0.183        2.203
   Lateral (v)             -0.40         0.00         0.27        0.202        2.434
   Vertical (w)            -0.28         0.00         0.29        0.171        2.057
   U component              8.03         8.31         8.57        0.183        2.203
   V component             -0.40         0.00         0.27        0.202        2.434
   W component             -0.28         0.00         0.29        0.171        2.057
   Horizontal (U&V)         8.03         8.31         8.57        0.183        2.197
   Total                    8.03         8.32         8.58        0.182        2.187

                       Min Reynolds     Mean Reynolds    Max Reynolds    Correlation
   Product             Stress (m/s)^2   Stress (m/s)^2   Stress (m/s)^2  Coefficient
   ----------------    --------------   --------------   --------------  -----------
   u'w'                     -0.045             0.007             0.054         0.223
   u'v'                     -0.049             0.009             0.091         0.256
   v'w'                     -0.115            -0.016             0.032        -0.472


   Friction Velocity (Ustar)  =      0.084 m/s
   Maximum Instantaneous TKE  =      0.123 (m/s)^2
   Maximum Instantaneous CTKE =      0.059 (m/s)^2


Grid Point Variance Summary:

   Y-coord -420.00 -385.00 -350.00 -315.00 -280.00 -245.00 -210.00 -175.00 -140.00 -105.00  -70.00  -35.00    0.00   35.00   70.00  105.00  140.00  175.00  210.00  245.00  280.00  315.00  350.00  385.00  420.00

   Height   Standard deviation at grid points for the u component:
   211.00    0.183   0.183   0.183   0.183   0.183   0.184   0.183   0.183   0.184   0.183   0.183   0.182   0.183   0.183   0.183   0.183   0.184   0.184   0.182   0.183   0.183   0.182   0.183   0.182   0.182
   176.00    0.182   0.184   0.184   0.182   0.182   0.182   0.182   0.182   0.182   0.184   0.183   0.182   0.183   0.184   0.183   0.182   0.183   0.183   0.184   0.183   0.182   0.182   0.183   0.183   0.183
   141.00    0.183   0.184   0.184   0.182   0.183   0.183   0.182   0.183   0.183   0.184   0.182   0.184   0.183   0.183   0.183   0.182   0.183   0.183   0.183   0.184   0.182   0.183   0.182   0.182   0.182
   106.00    0.183   0.183   0.183   0.183   0.182   0.183   0.183   0.184   0.184   0.184   0.184   0.182   0.183   0.182   0.183   0.183   0.182   0.184   0.183   0.184   0.184   0.184   0.182   0.183   0.182
    71.00    0.183   0.183   0.184   0.182   0.184   0.183   0.183   0.183   0.184   0.183   0.183   0.183   0.184   0.184   0.184   0.184   0.184   0.184   0.182   0.182   0.184   0.184   0.183   0.183   0.184
    36.00    0.184   0.183   0.182   0.183   0.183   0.182   0.183   0.183   0.184   0.183   0.183   0.183   0.183   0.183   0.183   0.182   0.184   0.183   0.183   0.183   0.183   0.183   0.183   0.182   0.183
     1.00    0.183   0.183   0.182   0.182   0.184   0.183   0.184   0.183   0.183   0.182   0.183   0.183   0.184   0.182   0.183   0.182   0.184   0.183   0.183   0.183   0.183   0.183   0.184   0.184   0.184

   Height   Standard deviation at grid points for the v component:
   211.00    0.202   0.203   0.202   0.202   0.202   0.201   0.201   0.202   0.202   0.203   0.202   0.202   0.202   0.203   0.202   0.202   0.201   0.201   0.202   0.201   0.203   0.202   0.201   0.202   0.203
   176.00    0.202   0.202   0.202   0.202   0.202   0.201   0.201   0.203   0.203   0.202   0.203   0.201   0.202   0.202   0.203   0.202   0.202   0.202   0.202   0.202   0.203   0.201   0.202   0.201   0.202
   141.00    0.202   0.201   0.203   0.203   0.202   0.203   0.203   0.201   0.201   0.202   0.202   0.203   0.203   0.203   0.202   0.201   0.203   0.203   0.203   0.201   0.203   0.203   0.202   0.202   0.202
   106.00    0.202   0.203   0.202   0.203   0.202   0.203   0.202   0.203   0.202   0.203   0.201   0.202   0.202   0.203   0.201   0.203   0.202   0.202   0.202   0.201   0.202   0.202   0.202   0.203   0.202
    71.00    0.202   0.203   0.203   0.201   0.202   0.203   0.202   0.201   0.201   0.202   0.202   0.202   0.202   0.202   0.202   0.201   0.202   0.203   0.203   0.202   0.203   0.202   0.202   0.203   0.201
    36.00    0.202   0.203   0.202   0.202   0.201   0.202   0.202   0.203   0.201   0.201   0.202   0.202   0.203   0.202   0.201   0.201   0.202   0.202   0.201   0.202   0.203   0.202   0.203   0.201   0.202
     1.00    0.202   0.202   0.203   0.202   0.202   0.201   0.203   0.202   0.203   0.203   0.203   0.203   0.203   0.201   0.202   0.201   0.202   0.202   0.202   0.203   0.201   0.202   0.201   0.203   0.203

   Height   Standard deviation at grid points for the w component:
   211.00    0.171   0.171   0.171   0.171   0.172   0.171   0.170   0.171   0.172   0.170   0.171   0.171   0.171   0.170   0.171   0.171   0.171   0.171   0.172   0.171   0.171   0.171   0.170   0.172   0.172
   176.00    0.171   0.171   0.172   0.171   0.171   0.170   0.171   0.171   0.170   0.171   0.170   0.172   0.170   0.171   0.170   0.171   0.171   0.171   0.171   0.172   0.170   0.171   0.172   0.172   0.171
   141.00    0.171   0.172   0.170   0.171   0.171   0.171   0.171   0.170   0.171   0.171   0.171   0.171   0.171   0.171   0.172   0.172   0.171   0.171   0.171   0.171   0.171   0.171   0.171   0.171   0.171
   106.00    0.171   0.170   0.172   0.171   0.171   0.170   0.171   0.171   0.171   0.172   0.171   0.170   0.171   0.170   0.171   0.171   0.171   0.171   0.171   0.170   0.172   0.171   0.172   0.171   0.172
    71.00    0.171   0.171   0.171   0.170   0.171   0.171   0.170   0.171   0.171   0.170   0.171   0.171   0.171   0.171   0.171   0.170   0.170   0.171   0.170   0.171   0.171   0.171   0.171   0.171   0.171
    36.00    0.172   0.171   0.170   0.171   0.171   0.170   0.171   0.171   0.171   0.171   0.171   0.172   0.171   0.170   0.172   0.171   0.171   0.171   0.171   0.171   0.171   0.171   0.172   0.171   0.171
     1.00    0.171   0.171   0.171   0.171   0.171   0.171   0.171   0.171   0.171   0.171   0.171   0.171   0.171   0.171   0.171   0.172   0.171   0.171   0.171   0.171   0.171   0.171   0.171   0.171   0.171

   Mean standard deviation across all grid points:
      u component:    0.183 m/s
      v component:    0.202 m/s
      w component:    0.171 m/s


U-component (X) statistics from the interpolated hub point:

   Mean =   8.3109 m/s
   TI   =   2.2027 %


Processing complete.  4.68750E-02 CPU seconds used.
