
 **************************************************************************************************
 OpenFAST

 Copyright (C) 2021 National Renewable Energy Laboratory
 Copyright (C) 2021 Envision Energy USA LTD

 This program is licensed under Apache License Version 2.0 and comes with ABSOLUTELY NO WARRANTY.
 See the "LICENSE" file distributed with this software for details.
 **************************************************************************************************

 OpenFAST-v2.5.0-9-g1043bf20
 Compile Info:
  - Compiler: GCC version 10.2.0
  - Architecture: 64 bit
  - Precision: double
  - Date: Jan 14 2021
  - Time: 15:07:03
 Execution Info:
  - Date: 01/14/2021
  - Time: 15:31:04-0600

 OpenFAST input file heading:
     FAST Certification Test #21: NREL 5.0 MW Baseline Offshore Turbine with OC4 Jacket
     Configuration

 Running ElastoDyn.
 Nodal outputs section of ElastoDyn input file not found or improperly formatted.
 Running AeroDyn.
 Nodal output section of AeroDyn input file not found or improperly formatted.
 Warning: Turning off Unsteady Aerodynamics because C_nalpha is 0. (node 1, blade 1)
 Warning: Turning off Unsteady Aerodynamics because C_nalpha is 0. (node 2, blade 1)
 Warning: Turning off Unsteady Aerodynamics because C_nalpha is 0. (node 3, blade 1)
 Warning: Turning off Unsteady Aerodynamics because C_nalpha is 0. (node 4, blade 1)
 Warning: Turning off Unsteady Aerodynamics because C_nalpha is 0. (node 1, blade 2)
 Warning: Turning off Unsteady Aerodynamics because C_nalpha is 0. (node 2, blade 2)
 Warning: Turning off Unsteady Aerodynamics because C_nalpha is 0. (node 3, blade 2)
 Warning: Turning off Unsteady Aerodynamics because C_nalpha is 0. (node 4, blade 2)
 Warning: Turning off Unsteady Aerodynamics because C_nalpha is 0. (node 1, blade 3)
 Warning: Turning off Unsteady Aerodynamics because C_nalpha is 0. (node 2, blade 3)
 Warning: Turning off Unsteady Aerodynamics because C_nalpha is 0. (node 3, blade 3)
 Warning: Turning off Unsteady Aerodynamics because C_nalpha is 0. (node 4, blade 3)
 Running InflowWind.

    Reading a 31x31 grid (145 m wide, 17.5 m to 162.5 m above ground) with a characteristic wind
    speed of 12 m/s. This full-field file was generated by TurbSim (v1.06.00, 21-Sep-2012) on
    07-Jan-2014 at 12:50:45.

    Processed 1442 time steps of 20-Hz full-field data (72.05 seconds).
 Running ServoDyn.
 Running ServoDyn Interface for Bladed Controllers (using GNU Fortran for Linux, ).
 Using legacy Bladed DLL interface.
 Running HydroDyn.
  Generating incident wave kinematics and current time history.
 Running SubDyn.
    Calculating Internal Modal Eigenvectors

 FAST_InitializeAll:HydroDyn_Init:Waves_Init:VariousWaves_Init: The random number generator in use
 differs from the original code provided by NREL. This pRNG uses 8 seeds instead of the 2 in the
 HydroDyn input file.

  Time: 0 of 60 seconds.

 FAST_Solution0:CalcOutputs_And_SolveForInputs:SolveOption2:SrvD_CalcOutput:DLL_controller_call:Run
 ning with torque and pitch control of the NREL offshore 5MW baseline wind turbine from DISCON.dll
 as written by J. Jonkman of NREL/NWTC for use in the IEA Annex XXIII OC3 studies.


 FAST_Solution:FAST_AdvanceStates:SrvD_UpdateStates:DLL_controller_call:BladedInterface option was
 designed for an explicit-loose coupling scheme. Using last calculated values from DLL on all
 subsequent calls until time is advanced. Warning will not be displayed again.

                                                                                                   Time: 1 of 60 seconds.  Estimated final completion at 17:51:27.                                                                                                                                     Time: 2 of 60 seconds.  Estimated final completion at 16:25:29.                                                                                                                                     Time: 3 of 60 seconds.  Estimated final completion at 16:18:14.                                                                                                                                     Time: 4 of 60 seconds.  Estimated final completion at 16:20:44.                                                                                                                                     Time: 5 of 60 seconds.  Estimated final completion at 16:20:15.                                                                                                                                     Time: 6 of 60 seconds.  Estimated final completion at 16:20:57.                                                                                                                                     Time: 7 of 60 seconds.  Estimated final completion at 16:22:33.                                                                                                                                     Time: 8 of 60 seconds.  Estimated final completion at 16:25:14.                                                                                                                                     Time: 9 of 60 seconds.  Estimated final completion at 16:18:56.                                                                                                                                     Time: 10 of 60 seconds.  Estimated final completion at 16:15:16.                                                                                                                                    Time: 11 of 60 seconds.  Estimated final completion at 16:20:07.                                                                                                                                    Time: 12 of 60 seconds.  Estimated final completion at 16:22:59.                                                                                                                                    Time: 13 of 60 seconds.  Estimated final completion at 16:09:10.                                                                                                                                    Time: 14 of 60 seconds.  Estimated final completion at 16:09:24.                                                                                                                                    Time: 15 of 60 seconds.  Estimated final completion at 16:09:08.                                                                                                                                    Time: 16 of 60 seconds.  Estimated final completion at 16:09:59.                                                                                                                                    Time: 17 of 60 seconds.  Estimated final completion at 16:08:37.                                                                                                                                    Time: 18 of 60 seconds.  Estimated final completion at 16:19:14.                                                                                                                                    Time: 19 of 60 seconds.  Estimated final completion at 16:36:11.                                                                                                                                    Time: 20 of 60 seconds.  Estimated final completion at 16:14:24.                                                                                                                                    Time: 21 of 60 seconds.  Estimated final completion at 16:05:59.                                                                                                                                    Time: 22 of 60 seconds.  Estimated final completion at 16:08:16.                                                                                                                                    Time: 23 of 60 seconds.  Estimated final completion at 16:08:20.                                                                                                                                    Time: 24 of 60 seconds.  Estimated final completion at 16:09:48.                                                                                                                                    Time: 25 of 60 seconds.  Estimated final completion at 16:10:52.                                                                                                                                    Time: 26 of 60 seconds.  Estimated final completion at 16:09:12.                                                                                                                                    Time: 27 of 60 seconds.  Estimated final completion at 16:09:35.                                                                                                                                    Time: 28 of 60 seconds.  Estimated final completion at 16:07:02.                                                                                                                                    Time: 29 of 60 seconds.  Estimated final completion at 16:07:38.                                                                                                                                    Time: 30 of 60 seconds.  Estimated final completion at 16:06:45.                                                                                                                                    Time: 31 of 60 seconds.  Estimated final completion at 16:06:38.                                                                                                                                    Time: 32 of 60 seconds.  Estimated final completion at 16:06:58.                                                                                                                                    Time: 33 of 60 seconds.  Estimated final completion at 16:06:32.                                                                                                                                    Time: 34 of 60 seconds.  Estimated final completion at 16:06:35.                                                                                                                                    Time: 35 of 60 seconds.  Estimated final completion at 16:06:34.                                                                                                                                    Time: 36 of 60 seconds.  Estimated final completion at 16:07:09.                                                                                                                                    Time: 37 of 60 seconds.  Estimated final completion at 16:06:54.                                                                                                                                    Time: 38 of 60 seconds.  Estimated final completion at 16:06:44.                                                                                                                                    Time: 39 of 60 seconds.  Estimated final completion at 16:07:15.                                                                                                                                    Time: 40 of 60 seconds.  Estimated final completion at 16:06:51.                                                                                                                                    Time: 41 of 60 seconds.  Estimated final completion at 16:07:01.                                                                                                                                    Time: 42 of 60 seconds.  Estimated final completion at 16:06:19.                                                                                                                                    Time: 43 of 60 seconds.  Estimated final completion at 16:06:45.                                                                                                                                    Time: 44 of 60 seconds.  Estimated final completion at 16:06:56.                                                                                                                                    Time: 45 of 60 seconds.  Estimated final completion at 16:07:03.                                                                                                                                    Time: 46 of 60 seconds.  Estimated final completion at 16:06:46.                                                                                                                                    Time: 47 of 60 seconds.  Estimated final completion at 16:06:48.                                                                                                                                    Time: 48 of 60 seconds.  Estimated final completion at 16:06:44.                                                                                                                                    Time: 49 of 60 seconds.  Estimated final completion at 16:06:56.                                                                                                                                    Time: 50 of 60 seconds.  Estimated final completion at 16:06:54.                                                                                                                                    Time: 51 of 60 seconds.  Estimated final completion at 16:07:13.                                                                                                                                    Time: 52 of 60 seconds.  Estimated final completion at 16:07:14.                                                                                                                                    Time: 53 of 60 seconds.  Estimated final completion at 16:07:17.                                                                                                                                    Time: 54 of 60 seconds.  Estimated final completion at 16:06:52.                                                                                                                                    Time: 55 of 60 seconds.  Estimated final completion at 16:07:02.                                                                                                                                    Time: 56 of 60 seconds.  Estimated final completion at 16:07:03.                                                                                                                                    Time: 57 of 60 seconds.  Estimated final completion at 16:07:10.                                                                                                                                    Time: 58 of 60 seconds.  Estimated final completion at 16:07:04.                                                                                                                                    Time: 59 of 60 seconds.  Estimated final completion at 16:07:09.                                                                                                                                    Time: 60 of 60 seconds.  Estimated final completion at 16:07:08.                                                                                                                                   
  Total Real Time:       36.062 minutes
  Total CPU Time:        35.002 minutes
  Simulation CPU Time:   34.444 minutes
  Simulated Time:        1 minutes
  Time Ratio (Sim/CPU):  2.90326E-02

  OpenFAST terminated normally.

