
 **************************************************************************************************
 OpenFAST

 Copyright (C) 2020 National Renewable Energy Laboratory
 Copyright (C) 2020 Envision Energy USA LTD

 This program is licensed under Apache License Version 2.0 and comes with ABSOLUTELY NO WARRANTY.
 See the "LICENSE" file distributed with this software for details.
 **************************************************************************************************

 OpenFAST-v2.4.0-53-g8bfd804f
 Compile Info:
  - Compiler: GCC version 7.5.0
  - Architecture: 64 bit
  - Precision: double
  - Date: Nov  6 2020
  - Time: 18:38:52
 Execution Info:
  - Date: 11/06/2020
  - Time: 22:11:01+0000

 OpenFAST input file heading:
     IEA task 37 RWT turbine -- https://github.com/IEAWindTask37/IEA-3.4-130-RWT

 Running ElastoDyn.
 Nodal outputs section of ElastoDyn input file not found or improperly formatted.
 Running AeroDyn.
 Nodal output section of AeroDyn input file not found or improperly formatted.
 Warning: Turning off Unsteady Aerodynamics because C_nalpha is 0. (node 1, blade 1)
 Warning: Turning off Unsteady Aerodynamics because C_nalpha is 0. (node 2, blade 1)
 Warning: Turning off Unsteady Aerodynamics because C_nalpha is 0. (node 1, blade 2)
 Warning: Turning off Unsteady Aerodynamics because C_nalpha is 0. (node 2, blade 2)
 Warning: Turning off Unsteady Aerodynamics because C_nalpha is 0. (node 1, blade 3)
 Warning: Turning off Unsteady Aerodynamics because C_nalpha is 0. (node 2, blade 3)
 Running AeroAcoustics (v1.00.00, 18-Aug-2016).
 Running InflowWind.
  Time: 0 of 20 seconds.
                                                                                                   Time: 5 of 20 seconds.  Estimated final completion at 22:11:44.                                                                                                                                     Time: 10 of 20 seconds.  Estimated final completion at 22:11:46.                                                                                                                                    Time: 15 of 20 seconds.  Estimated final completion at 22:11:45.                                                                                                                                    Time: 20 of 20 seconds.  Estimated final completion at 22:11:46.                                                                                                                                   
  Total Real Time:       44.211 seconds
  Total CPU Time:        43.905 seconds
  Simulation CPU Time:   43.808 seconds
  Simulated Time:        20 seconds
  Time Ratio (Sim/CPU):  0.45653

  OpenFAST terminated normally.

