
This summary information was generated by ElastoDyn on 03-Feb-2021 at 16:05:08.


Turbine features:

            Upwind, three-bladed rotor with rigid hub.
            The model has 9 of 24 DOFs active (enabled) at start-up.
 Disabled   Platform horizontal surge translation DOF 
 Disabled   Platform horizontal sway translation DOF 
 Disabled   Platform vertical heave translation DOF 
 Disabled   Platform roll tilt rotation DOF 
 Disabled   Platform pitch tilt rotation DOF 
 Disabled   Platform yaw rotation DOF 
 Disabled   1st tower fore-aft bending mode DOF 
 Disabled   1st tower side-to-side bending mode DOF 
 Disabled   2nd tower fore-aft bending mode DOF 
 Disabled   2nd tower side-to-side bending mode DOF 
 Disabled   Nacelle yaw DOF 
 Disabled   Rotor-furl DOF 
 Disabled   Variable speed generator DOF 
 Disabled   Drivetrain rotational-flexibility DOF 
 Disabled   Tail-furl DOF 
 Enabled    1st flapwise bending-mode DOF of blade 1 
 Enabled    1st edgewise bending-mode DOF of blade 1 
 Enabled    2nd flapwise bending-mode DOF of blade 1 
 Enabled    1st flapwise bending-mode DOF of blade 2 
 Enabled    1st edgewise bending-mode DOF of blade 2 
 Enabled    2nd flapwise bending-mode DOF of blade 2 
 Enabled    1st flapwise bending-mode DOF of blade 3 
 Enabled    1st edgewise bending-mode DOF of blade 3 
 Enabled    2nd flapwise bending-mode DOF of blade 3 


Time steps:

    Structural            (s)        0.00625000


Some calculated parameters:

    Hub-Height            (m)           113.704
    Flexible Tower Length (m)           110.000
    Flexible Blade Length (m)            63.000


Rotor mass properties:

    Rotor Mass            (kg)       107196.444
    Rotor Inertia         (kg-m^2) 32979493.034
                                        Blade 1      Blade 2      Blade 3
                                        -------      -------      -------
    Mass                  (kg)        15326.278    15326.278    15326.278
    Second Mass Moment    (kg-m^2)  9682585.186  9682585.186  9682585.186
    First Mass Moment     (kg-m)     298632.869   298632.869   298632.869
    Center of Mass        (m)            19.485       19.485       19.485


Additional mass properties:

    Tower-top Mass        (kg)       516273.915
    Tower Mass            (kg)       436308.510
    Platform Mass         (kg)            0.000
    Mass Incl. Platform   (kg)       952582.425


Interpolated tower properties:

Node  TwFract   HNodes  DHNodes  TMassDen    FAStiff    SSStiff
 (-)      (-)      (m)      (m)    (kg/m)     (Nm^2)     (Nm^2)
   1    0.025    2.750    5.500  5501.260  5.945E+11  5.945E+11
   2    0.075    8.250    5.500  5322.040  5.547E+11  5.547E+11
   3    0.125   13.750    5.500  5145.763  5.169E+11  5.169E+11
   4    0.175   19.250    5.500  4972.428  4.812E+11  4.812E+11
   5    0.225   24.750    5.500  4802.038  4.472E+11  4.472E+11
   6    0.275   30.250    5.500  4634.592  4.152E+11  4.152E+11
   7    0.325   35.750    5.500  4470.090  3.848E+11  3.848E+11
   8    0.375   41.250    5.500  4308.530  3.562E+11  3.562E+11
   9    0.425   46.750    5.500  4149.915  3.292E+11  3.292E+11
  10    0.475   52.250    5.500  3994.245  3.037E+11  3.037E+11
  11    0.525   57.750    5.500  3841.515  2.798E+11  2.798E+11
  12    0.575   63.250    5.500  3691.725  2.573E+11  2.573E+11
  13    0.625   68.750    5.500  3544.880  2.361E+11  2.361E+11
  14    0.675   74.250    5.500  3400.980  2.163E+11  2.163E+11
  15    0.725   79.750    5.500  3260.025  1.978E+11  1.978E+11
  16    0.775   85.250    5.500  3122.015  1.805E+11  1.805E+11
  17    0.825   90.750    5.500  2986.945  1.643E+11  1.643E+11
  18    0.875   96.250    5.500  2854.815  1.493E+11  1.493E+11
  19    0.925  101.750    5.500  2725.630  1.353E+11  1.353E+11
  20    0.975  107.250    5.500  2599.390  1.223E+11  1.223E+11


Interpolated blade 1 properties:

Node  BlFract   RNodes  DRNodes PitchAxis  StrcTwst  BMassDen    FlpStff    EdgStff
 (-)      (-)      (m)      (m)       (-)     (deg)    (kg/m)     (Nm^2)     (Nm^2)
   1    0.029    3.853    3.706     0.478    19.500   815.659  7.542E+09  7.709E+09
   2    0.088    7.559    3.706     0.377    17.894   498.575  4.666E+09  6.216E+09
   3    0.147   11.265    3.706     0.303    15.515   368.023  2.982E+09  5.540E+09
   4    0.206   14.971    3.706     0.266    11.824   301.143  2.492E+09  4.104E+09
   5    0.265   18.676    3.706     0.247     8.553   292.095  2.136E+09  3.523E+09
   6    0.324   22.382    3.706     0.241     5.947   268.885  1.627E+09  2.792E+09
   7    0.382   26.088    3.706     0.244     3.782   253.736  1.231E+09  2.334E+09
   8    0.441   29.794    3.706     0.256     2.390   235.881  9.256E+08  1.833E+09
   9    0.500   33.500    3.706     0.273     1.548   211.262  6.368E+08  1.212E+09
  10    0.559   37.206    3.706     0.291     0.929   184.156  3.825E+08  6.650E+08
  11    0.618   40.912    3.706     0.306     0.426   160.516  2.201E+08  3.875E+08
  12    0.676   44.618    3.706     0.314     0.024   144.843  1.457E+08  2.955E+08
  13    0.735   48.324    3.706     0.317    -0.289   131.866  1.024E+08  2.480E+08
  14    0.794   52.029    3.706     0.309    -0.686   116.855  6.666E+07  2.047E+08
  15    0.853   55.735    3.706     0.291    -1.377    89.045  3.302E+07  1.035E+08
  16    0.912   59.441    3.706     0.275    -2.478    51.553  9.308E+06  4.954E+07
  17    0.971   63.147    3.706     0.259    -3.887    11.570  7.728E+05  3.603E+06


Interpolated blade 2 properties:

Node  BlFract   RNodes  DRNodes PitchAxis  StrcTwst  BMassDen    FlpStff    EdgStff
 (-)      (-)      (m)      (m)       (-)     (deg)    (kg/m)     (Nm^2)     (Nm^2)
   1    0.029    3.853    3.706     0.478    19.500   815.659  7.542E+09  7.709E+09
   2    0.088    7.559    3.706     0.377    17.894   498.575  4.666E+09  6.216E+09
   3    0.147   11.265    3.706     0.303    15.515   368.023  2.982E+09  5.540E+09
   4    0.206   14.971    3.706     0.266    11.824   301.143  2.492E+09  4.104E+09
   5    0.265   18.676    3.706     0.247     8.553   292.095  2.136E+09  3.523E+09
   6    0.324   22.382    3.706     0.241     5.947   268.885  1.627E+09  2.792E+09
   7    0.382   26.088    3.706     0.244     3.782   253.736  1.231E+09  2.334E+09
   8    0.441   29.794    3.706     0.256     2.390   235.881  9.256E+08  1.833E+09
   9    0.500   33.500    3.706     0.273     1.548   211.262  6.368E+08  1.212E+09
  10    0.559   37.206    3.706     0.291     0.929   184.156  3.825E+08  6.650E+08
  11    0.618   40.912    3.706     0.306     0.426   160.516  2.201E+08  3.875E+08
  12    0.676   44.618    3.706     0.314     0.024   144.843  1.457E+08  2.955E+08
  13    0.735   48.324    3.706     0.317    -0.289   131.866  1.024E+08  2.480E+08
  14    0.794   52.029    3.706     0.309    -0.686   116.855  6.666E+07  2.047E+08
  15    0.853   55.735    3.706     0.291    -1.377    89.045  3.302E+07  1.035E+08
  16    0.912   59.441    3.706     0.275    -2.478    51.553  9.308E+06  4.954E+07
  17    0.971   63.147    3.706     0.259    -3.887    11.570  7.728E+05  3.603E+06


Interpolated blade 3 properties:

Node  BlFract   RNodes  DRNodes PitchAxis  StrcTwst  BMassDen    FlpStff    EdgStff
 (-)      (-)      (m)      (m)       (-)     (deg)    (kg/m)     (Nm^2)     (Nm^2)
   1    0.029    3.853    3.706     0.478    19.500   815.659  7.542E+09  7.709E+09
   2    0.088    7.559    3.706     0.377    17.894   498.575  4.666E+09  6.216E+09
   3    0.147   11.265    3.706     0.303    15.515   368.023  2.982E+09  5.540E+09
   4    0.206   14.971    3.706     0.266    11.824   301.143  2.492E+09  4.104E+09
   5    0.265   18.676    3.706     0.247     8.553   292.095  2.136E+09  3.523E+09
   6    0.324   22.382    3.706     0.241     5.947   268.885  1.627E+09  2.792E+09
   7    0.382   26.088    3.706     0.244     3.782   253.736  1.231E+09  2.334E+09
   8    0.441   29.794    3.706     0.256     2.390   235.881  9.256E+08  1.833E+09
   9    0.500   33.500    3.706     0.273     1.548   211.262  6.368E+08  1.212E+09
  10    0.559   37.206    3.706     0.291     0.929   184.156  3.825E+08  6.650E+08
  11    0.618   40.912    3.706     0.306     0.426   160.516  2.201E+08  3.875E+08
  12    0.676   44.618    3.706     0.314     0.024   144.843  1.457E+08  2.955E+08
  13    0.735   48.324    3.706     0.317    -0.289   131.866  1.024E+08  2.480E+08
  14    0.794   52.029    3.706     0.309    -0.686   116.855  6.666E+07  2.047E+08
  15    0.853   55.735    3.706     0.291    -1.377    89.045  3.302E+07  1.035E+08
  16    0.912   59.441    3.706     0.275    -2.478    51.553  9.308E+06  4.954E+07
  17    0.971   63.147    3.706     0.259    -3.887    11.570  7.728E+05  3.603E+06


Requested Outputs:


 Col   Parameter            Units               
 ---   ---------------      ---------------     
   0   Time                 (s)                 
   1   Azimuth              (deg)               
   2   BldPitch1            (deg)               
   3   GenSpeed             (rpm)               
   4   IPDefl1              (m)                 
   5   LSSGagMya            (kN-m)              
   6   LSSGagMza            (kN-m)              
   7   OoPDefl1             (m)                 
   8   RootFxb1             (kN)                
   9   RootFyb1             (kN)                
  10   RootFzb1             (kN)                
  11   RootMxb1             (kN-m)              
  12   RootMyb1             (kN-m)              
  13   RootMzb1             (kN-m)              
  14   RotSpeed             (rpm)               
  15   RotTorq              (kN-m)              
  16   YawPzn               (deg)               


  Requested Output Channels at each blade station:
 Col   Parameter            Units               
 ---   ---------------      ---------------     
