
 **************************************************************************************************
 OpenFAST

 Copyright (C) 2021 National Renewable Energy Laboratory
 Copyright (C) 2021 Envision Energy USA LTD

 This program is licensed under Apache License Version 2.0 and comes with ABSOLUTELY NO WARRANTY.
 See the "LICENSE" file distributed with this software for details.
 **************************************************************************************************

 OpenFAST-v2.4.0-138-g9a6c1967
 Compile Info:
  - Compiler: Intel(R) Fortran Intel(R) 64 Compiler Classic for applications running on Intel(R)
  64, Version 2021.1.2 Build 20201208_000000
  - Architecture: 64 bit
  - Precision: double
  - Date: Jan 12 2021
  - Time: 13:31:16
 Execution Info:
  - Date: 01/12/2021
  - Time: 14:05:59-0600

 OpenFAST input file heading:
     FAST Certification Test #05: AWT-27CR2 with many DOFs with startup and shutdown and FF
     turbulence.

 Running ElastoDyn.
 Nodal outputs section of ElastoDyn input file not found or improperly formatted.
 Running AeroDyn.
 Nodal output section of AeroDyn input file not found or improperly formatted.
 Running InflowWind.
 Running ServoDyn.

 FAST_InitializeAll: IfW_Init:IfW_UniformWind_Init: Could not read upflow column in uniform wind
 files. Assuming upflow is 0.

  Time: 0 of 30 seconds.
 The BEM solution is being turned off due to low TSR.  (TSR = 0). This warning will not be
 repeated though the condition may persist. (See GeomPhi output channel.)
+                                                                                                  
+ Time: 1 of 30 seconds.  Estimated final completion at 14:06:18.
+                                                                                                  
+ Time: 2 of 30 seconds.  Estimated final completion at 14:06:18.
+                                                                                                  
+ Time: 3 of 30 seconds.  Estimated final completion at 14:06:17.
+                                                                                                  
+ Time: 4 of 30 seconds.  Estimated final completion at 14:06:20.
+                                                                                                  
+ Time: 5 of 30 seconds.  Estimated final completion at 14:06:16.
+                                                                                                  
+ Time: 6 of 30 seconds.  Estimated final completion at 14:06:16.
+                                                                                                  
+ Time: 7 of 30 seconds.  Estimated final completion at 14:06:19.
+                                                                                                  
+ Time: 8 of 30 seconds.  Estimated final completion at 14:06:20.
+                                                                                                  
+ Time: 9 of 30 seconds.  Estimated final completion at 14:06:17.
+                                                                                                  
+ Time: 10 of 30 seconds.  Estimated final completion at 14:06:19.
+                                                                                                  
+ Time: 11 of 30 seconds.  Estimated final completion at 14:06:19.
+                                                                                                  
+ Time: 12 of 30 seconds.  Estimated final completion at 14:06:20.
+                                                                                                  
+ Time: 13 of 30 seconds.  Estimated final completion at 14:06:19.
+                                                                                                  
+ Time: 14 of 30 seconds.  Estimated final completion at 14:06:19.
+                                                                                                  
+ Time: 15 of 30 seconds.  Estimated final completion at 14:06:18.
+                                                                                                  
+ Time: 16 of 30 seconds.  Estimated final completion at 14:06:20.
+                                                                                                  
+ Time: 17 of 30 seconds.  Estimated final completion at 14:06:22.
+                                                                                                  
+ Time: 18 of 30 seconds.  Estimated final completion at 14:06:18.
+                                                                                                  
+ Time: 19 of 30 seconds.  Estimated final completion at 14:06:18.
+                                                                                                  
+ Time: 20 of 30 seconds.  Estimated final completion at 14:06:18.
+                                                                                                  
+ Time: 21 of 30 seconds.  Estimated final completion at 14:06:18.
+                                                                                                  
+ Time: 22 of 30 seconds.  Estimated final completion at 14:06:18.
+                                                                                                  
+ Time: 23 of 30 seconds.  Estimated final completion at 14:06:19.
+                                                                                                  
+ Time: 24 of 30 seconds.  Estimated final completion at 14:06:19.
+                                                                                                  
+ Time: 25 of 30 seconds.  Estimated final completion at 14:06:19.
+                                                                                                  
+ Time: 26 of 30 seconds.  Estimated final completion at 14:06:19.
+                                                                                                  
+ Time: 27 of 30 seconds.  Estimated final completion at 14:06:19.
+                                                                                                  
+ Time: 28 of 30 seconds.  Estimated final completion at 14:06:19.
+                                                                                                  
+ Time: 29 of 30 seconds.  Estimated final completion at 14:06:19.
+                                                                                                  
+ Time: 30 of 30 seconds.  Estimated final completion at 14:06:19.
+                                                                                                  

  Total Real Time:       18.92 seconds
  Total CPU Time:        18.875 seconds
  Simulation CPU Time:   18.781 seconds
  Simulated Time:        30.004 seconds
  Time Ratio (Sim/CPU):  1.5976

  OpenFAST terminated normally.

