
 **************************************************************************************************
 OpenFAST

 Copyright (C) 2024 National Renewable Energy Laboratory
 Copyright (C) 2024 Envision Energy USA LTD

 This program is licensed under Apache License Version 2.0 and comes with ABSOLUTELY NO WARRANTY.
 See the "LICENSE" file distributed with this software for details.
 **************************************************************************************************

 OpenFAST--128-NOTFOUND
 Compile Info:
  - Compiler: GCC version 12.3.0
  - Architecture: 64 bit
  - Precision: double
  - OpenMP: Yes, number of threads: 4/4
  - Date: Sep 18 2024
  - Time: 14:26:14
 Execution Info:
  - Date: 09/18/2024
  - Time: 14:38:43+0000

 OpenFAST input file heading:
     Free-free beam test case

 Running ElastoDyn.
 Nodal outputs section of ElastoDyn input file not found or improperly formatted.
 Running BeamDyn.
 Nodal outputs section of BeamDyn input file not found or improperly formatted.
  Time: 0 of 1.50000E-03 seconds.
                                                                                                   Performing linearization 1 at simulation time 0 s. (RotSpeed=0 rpm, BldPitch1=0 deg)             
                                                                                                  
  Total Real Time:       0.939 seconds
  Total CPU Time:        1.7237 seconds
  Simulation CPU Time:   1.1857 seconds
  Simulated Time:        1.50000E-03 seconds
  Time Ratio (Sim/CPU):  1.26508E-03

  OpenFAST terminated normally.

