
 **************************************************************************************************
 OpenFAST (v8.17.01b-dev, 18-Jan-2017)

 Copyright (C) 2017 National Renewable Energy Laboratory

 This program comes with ABSOLUTELY NO WARRANTY. See the "license.txt" file distributed with this
 software for details.
 **************************************************************************************************

  Running OpenFAST (v8.17.01b-dev, 18-Jan-2017), compiled as a 64-bit application using double
  precision
  linked with NWTC Subroutine Library (v2.11.00, 12-Nov-2016)

  Heading of the OpenFAST input file:
    FAST Certification Test #12: WindPACT 1.5 MW Baseline with many DOFs with VS and VP and ECD
    wind.

  Running ElastoDyn (v1.04.00a-bjj, 26-Jul-2016).

  Running AeroDyn (v15.04.01, 13-Dec-2016).

  Running AirfoilInfo (v1.01.00a-bjj, 5-Apr-2016).

  Running BEM (v1.03.00, 29-Oct-2016).
 Warning: Turning off Unsteady Aerodynamics because C_nalpha is 0.  BladeNode = 1, Blade = 1
 Warning: Turning off Unsteady Aerodynamics because C_nalpha is 0.  BladeNode = 2, Blade = 1
 Warning: Turning off Unsteady Aerodynamics because C_nalpha is 0.  BladeNode = 1, Blade = 2
 Warning: Turning off Unsteady Aerodynamics because C_nalpha is 0.  BladeNode = 2, Blade = 2
 Warning: Turning off Unsteady Aerodynamics because C_nalpha is 0.  BladeNode = 1, Blade = 3
 Warning: Turning off Unsteady Aerodynamics because C_nalpha is 0.  BladeNode = 2, Blade = 3

  Running InflowWind (v3.03.00, 26-Jul-2016).
  Opening InflowWind input file:  ./WP_Baseline/WP_Baseline_InflowWind_ECD.dat
    Processed 103 records of uniform wind data from './WP_Baseline/Wind/ECD_00PR.wnd'

  Running ServoDyn (v1.06.00a-bjj, 26-Jul-2016).
  Timestep: 0 of 20 seconds.
+                                                                                                  
+ Timestep: 1 of 20 seconds. Estimated final completion at 13:53:33.
+                                                                                                  
+ Timestep: 2 of 20 seconds. Estimated final completion at 13:53:33.
+                                                                                                  
+ Timestep: 3 of 20 seconds. Estimated final completion at 13:53:33.
+                                                                                                  
+ Timestep: 4 of 20 seconds. Estimated final completion at 13:53:33.

 ***********************************************
 Running with control option using data from:
  Speed controller for ADAMS WindPACT 15A1001 model April, 2002.
 ***********************************************

+                                                                                                  
+ Timestep: 5 of 20 seconds. Estimated final completion at 13:53:33.
+                                                                                                  
+ Timestep: 6 of 20 seconds. Estimated final completion at 13:53:33.
+                                                                                                  
+ Timestep: 7 of 20 seconds. Estimated final completion at 13:53:33.
+                                                                                                  
+ Timestep: 8 of 20 seconds. Estimated final completion at 13:53:33.
+                                                                                                  
+ Timestep: 9 of 20 seconds. Estimated final completion at 13:53:33.
+                                                                                                  
+ Timestep: 10 of 20 seconds. Estimated final completion at 13:53:34.
 Warning: Turning off Unsteady Aerodynamics due to high angle-of-attack. BladeNode = 3, Blade = 2
+                                                                                                  
+ Timestep: 11 of 20 seconds. Estimated final completion at 13:53:33.
 Warning: Turning off Unsteady Aerodynamics due to high angle-of-attack. BladeNode = 3, Blade = 1
 Warning: Turning off Unsteady Aerodynamics due to high angle-of-attack. BladeNode = 3, Blade = 3
+                                                                                                  
+ Timestep: 12 of 20 seconds. Estimated final completion at 13:53:33.
 Warning: Turning off Unsteady Aerodynamics due to high angle-of-attack. BladeNode = 4, Blade = 3
 Warning: Turning off Unsteady Aerodynamics due to high angle-of-attack. BladeNode = 4, Blade = 2
+                                                                                                  
+ Timestep: 13 of 20 seconds. Estimated final completion at 13:53:34.
 Warning: Turning off Unsteady Aerodynamics due to high angle-of-attack. BladeNode = 5, Blade = 2
 Warning: Turning off Unsteady Aerodynamics due to high angle-of-attack. BladeNode = 4, Blade = 1
 Warning: Turning off Unsteady Aerodynamics due to high angle-of-attack. BladeNode = 5, Blade = 1
+                                                                                                  
+ Timestep: 14 of 20 seconds. Estimated final completion at 13:53:34.
 Warning: Turning off Unsteady Aerodynamics due to high angle-of-attack. BladeNode = 6, Blade = 1
 Warning: Turning off Unsteady Aerodynamics due to high angle-of-attack. BladeNode = 5, Blade = 3
 Warning: Turning off Unsteady Aerodynamics due to high angle-of-attack. BladeNode = 6, Blade = 3
+                                                                                                  
+ Timestep: 15 of 20 seconds. Estimated final completion at 13:53:33.
 Warning: Turning off Unsteady Aerodynamics due to high angle-of-attack. BladeNode = 6, Blade = 2
+                                                                                                  
+ Timestep: 16 of 20 seconds. Estimated final completion at 13:53:33.
 Warning: Turning off Unsteady Aerodynamics due to high angle-of-attack. BladeNode = 7, Blade = 2
+                                                                                                  
+ Timestep: 17 of 20 seconds. Estimated final completion at 13:53:33.
 Warning: Turning off Unsteady Aerodynamics due to high angle-of-attack. BladeNode = 7, Blade = 1
+                                                                                                  
+ Timestep: 18 of 20 seconds. Estimated final completion at 13:53:33.
 Warning: Turning off Unsteady Aerodynamics due to high angle-of-attack. BladeNode = 7, Blade = 3
+                                                                                                  
+ Timestep: 19 of 20 seconds. Estimated final completion at 13:53:33.
+                                                                                                  
+ Timestep: 20 of 20 seconds. Estimated final completion at 13:53:33.
+                                                                                                  

  Total Real Time:       15.152 seconds
  Total CPU Time:        15.107 seconds
  Simulation CPU Time:   15.091 seconds
  Simulated Time:        20 seconds
  Time Ratio (Sim/CPU):  1.3253

  OpenFAST terminated normally.

