
 **************************************************************************************************
 OpenFAST (v8.17.01b-dev, 18-Jan-2017)

 Copyright (C) 2017 National Renewable Energy Laboratory

 This program comes with ABSOLUTELY NO WARRANTY. See the "license.txt" file distributed with this
 software for details.
 **************************************************************************************************

  Running OpenFAST (v8.17.01b-dev, 18-Jan-2017), compiled as a 64-bit application using double
  precision
  linked with NWTC Subroutine Library (v2.11.00, 12-Nov-2016)

  Heading of the OpenFAST input file:
    FAST Certification Test #22: NREL 5.0 MW Baseline Wind Turbine with ITI Barge Configuration,
    for use in offshore analysis

  Running ElastoDyn (v1.04.00a-bjj, 26-Jul-2016).

  Running AeroDyn14 (v14.05.01a-bjj, 25-Jul-2016).

  Running InflowWind (v3.03.00, 26-Jul-2016).
  Opening InflowWind input file:  ./5MW_Baseline/NRELOffshrBsline5MW_InflowWind_12mps.dat

    Reading a 31x31 grid (145 m wide, 17.5 m to 162.5 m above ground) with a characteristic wind
    speed of 12 m/s. This full-field file was generated by TurbSim (v1.06.00, 21-Sep-2012) on
    07-Jan-2014 at 12:50:45.

    Processed 1442 time steps of 20-Hz full-field data (72.05 seconds).

  Running ServoDyn (v1.06.00a-bjj, 26-Jul-2016).

  Running ServoDyn Interface for Bladed Controllers (using Intel Fortran for Linux, 14-Oct-2015).

 FAST_InitializeAll:SrvD_Init:BladedInterface_Init:The dynamic library
 ./5MW_Baseline/ServoData/DISCON_ITIBarge_win32.dll could not be loaded. Check that the file
 exists in the specified location and that it is compiled for 64-bit applications.

  FAST encountered an error during module initialization.
  Simulation error level: FATAL ERROR

  Aborting OpenFAST.

