
 **************************************************************************************************
 OpenFAST (v8.17.01b-dev, 18-Jan-2017)

 Copyright (C) 2017 National Renewable Energy Laboratory

 This program comes with ABSOLUTELY NO WARRANTY. See the "license.txt" file distributed with this
 software for details.
 **************************************************************************************************

  Running OpenFAST (v8.17.01b-dev, 18-Jan-2017), compiled as a 64-bit application using double
  precision
  linked with NWTC Subroutine Library (v2.11.00, 12-Nov-2016)

  Heading of the OpenFAST input file:
    FAST Certification Test #14: WindPACT 1.5 MW Baseline with stationary linearization in a vacuum

  Running ElastoDyn (v1.04.00a-bjj, 26-Jul-2016).
  Timestep: 0 of 0 seconds.
+                                                                                                  
+ Performing linearization at simulation time 0 s.


  OpenFAST terminated normally.

