
 **************************************************************************************************
 OpenFAST (v8.17.01b-dev, 18-Jan-2017)

 Copyright (C) 2017 National Renewable Energy Laboratory

 This program comes with ABSOLUTELY NO WARRANTY. See the "license.txt" file distributed with this
 software for details.
 **************************************************************************************************

  Running OpenFAST (v8.17.01b-dev, 18-Jan-2017), compiled as a 64-bit application using double
  precision
  linked with NWTC Subroutine Library (v2.11.00, 12-Nov-2016)

  Heading of the OpenFAST input file:
    FAST Certification Test #18: NREL 5.0 MW Baseline Wind Turbine (Onshore)

  Running ElastoDyn (v1.04.00a-bjj, 26-Jul-2016).

  Running AeroDyn (v15.04.02a, 10-May-2017).

  Running AirfoilInfo (v1.01.01a, 10-May-2017).

  Running BEM (v1.03.00, 29-Oct-2016).

  Running UnsteadyAero (v1.01.00a, 10-May-2017).
 Warning: Turning off Unsteady Aerodynamics because C_nalpha is 0.  BladeNode = 1, Blade = 1
 Warning: Turning off Unsteady Aerodynamics because C_nalpha is 0.  BladeNode = 2, Blade = 1
 Warning: Turning off Unsteady Aerodynamics because C_nalpha is 0.  BladeNode = 3, Blade = 1
 Warning: Turning off Unsteady Aerodynamics because C_nalpha is 0.  BladeNode = 4, Blade = 1
 Warning: Turning off Unsteady Aerodynamics because C_nalpha is 0.  BladeNode = 1, Blade = 2
 Warning: Turning off Unsteady Aerodynamics because C_nalpha is 0.  BladeNode = 2, Blade = 2
 Warning: Turning off Unsteady Aerodynamics because C_nalpha is 0.  BladeNode = 3, Blade = 2
 Warning: Turning off Unsteady Aerodynamics because C_nalpha is 0.  BladeNode = 4, Blade = 2
 Warning: Turning off Unsteady Aerodynamics because C_nalpha is 0.  BladeNode = 1, Blade = 3
 Warning: Turning off Unsteady Aerodynamics because C_nalpha is 0.  BladeNode = 2, Blade = 3
 Warning: Turning off Unsteady Aerodynamics because C_nalpha is 0.  BladeNode = 3, Blade = 3
 Warning: Turning off Unsteady Aerodynamics because C_nalpha is 0.  BladeNode = 4, Blade = 3

  Running InflowWind (v3.03.00, 26-Jul-2016).
  Opening InflowWind input file:  ./5MW_Baseline/NRELOffshrBsline5MW_InflowWind_12mps.dat

    Reading a 31x31 grid (145 m wide, 17.5 m to 162.5 m above ground) with a characteristic wind
    speed of 12 m/s. This full-field file was generated by TurbSim (v1.06.00, 21-Sep-2012) on
    07-Jan-2014 at 12:50:45.

    Processed 1442 time steps of 20-Hz full-field data (72.05 seconds).

  Running ServoDyn (v1.06.00a-bjj, 26-Jul-2016).

  Running ServoDyn Interface for Bladed Controllers (using Intel Fortran for Linux, 14-Oct-2015).
  Timestep: 0 of 60 seconds.

 FAST_Solution0:CalcOutputs_And_SolveForInputs:SolveOption2:SrvD_CalcOutput:Running with torque
 and pitch control of the NREL offshore 5MW baseline wind turbine from DISCON.dll as written by J.
 Jonkman of NREL/NWTC for use in the IEA Annex XXIII OC3 studies.

+                                                                                                  
+ Timestep: 5 of 60 seconds. Estimated final completion at 12:47:43.
+                                                                                                  
+ Timestep: 10 of 60 seconds. Estimated final completion at 12:47:43.
+                                                                                                  
+ Timestep: 15 of 60 seconds. Estimated final completion at 12:47:43.
+                                                                                                  
+ Timestep: 20 of 60 seconds. Estimated final completion at 12:47:44.
+                                                                                                  
+ Timestep: 25 of 60 seconds. Estimated final completion at 12:47:43.
+                                                                                                  
+ Timestep: 30 of 60 seconds. Estimated final completion at 12:47:43.
+                                                                                                  
+ Timestep: 35 of 60 seconds. Estimated final completion at 12:47:43.
+                                                                                                  
+ Timestep: 40 of 60 seconds. Estimated final completion at 12:47:42.
+                                                                                                  
+ Timestep: 45 of 60 seconds. Estimated final completion at 12:47:42.
+                                                                                                  
+ Timestep: 50 of 60 seconds. Estimated final completion at 12:47:43.
+                                                                                                  
+ Timestep: 55 of 60 seconds. Estimated final completion at 12:47:43.
+                                                                                                  
+ Timestep: 60 of 60 seconds. Estimated final completion at 12:47:43.
+                                                                                                  

  Total Real Time:       1.2832 minutes
  Total CPU Time:        1.2797 minutes
  Simulation CPU Time:   1.2711 minutes
  Simulated Time:        1 minutes
  Time Ratio (Sim/CPU):  0.78673

  OpenFAST terminated normally.

