
 **************************************************************************************************
 OpenFAST (v8.17.01b-dev, 18-Jan-2017)

 Copyright (C) 2017 National Renewable Energy Laboratory

 This program comes with ABSOLUTELY NO WARRANTY. See the "license.txt" file distributed with this
 software for details.
 **************************************************************************************************

  Running OpenFAST (v8.17.01b-dev, 18-Jan-2017), compiled as a 64-bit application using double
  precision
  linked with NWTC Subroutine Library (v2.11.00, 12-Nov-2016)

  Heading of the OpenFAST input file:
    FAST Certification Test #20: NREL 5.0 MW Baseline Wind Turbine with OC3 Tripod Configuration,
    for use in offshore analysis

  Running ElastoDyn (v1.04.00a-bjj, 26-Jul-2016).

  Running AeroDyn (v15.04.02a, 10-May-2017).

  Running AirfoilInfo (v1.01.01a, 10-May-2017).

  Running BEM (v1.03.00, 29-Oct-2016).

  Running UnsteadyAero (v1.01.00a, 10-May-2017).
 Warning: Turning off Unsteady Aerodynamics because C_nalpha is 0.  BladeNode = 1, Blade = 1
 Warning: Turning off Unsteady Aerodynamics because C_nalpha is 0.  BladeNode = 2, Blade = 1
 Warning: Turning off Unsteady Aerodynamics because C_nalpha is 0.  BladeNode = 3, Blade = 1
 Warning: Turning off Unsteady Aerodynamics because C_nalpha is 0.  BladeNode = 4, Blade = 1
 Warning: Turning off Unsteady Aerodynamics because C_nalpha is 0.  BladeNode = 1, Blade = 2
 Warning: Turning off Unsteady Aerodynamics because C_nalpha is 0.  BladeNode = 2, Blade = 2
 Warning: Turning off Unsteady Aerodynamics because C_nalpha is 0.  BladeNode = 3, Blade = 2
 Warning: Turning off Unsteady Aerodynamics because C_nalpha is 0.  BladeNode = 4, Blade = 2
 Warning: Turning off Unsteady Aerodynamics because C_nalpha is 0.  BladeNode = 1, Blade = 3
 Warning: Turning off Unsteady Aerodynamics because C_nalpha is 0.  BladeNode = 2, Blade = 3
 Warning: Turning off Unsteady Aerodynamics because C_nalpha is 0.  BladeNode = 3, Blade = 3
 Warning: Turning off Unsteady Aerodynamics because C_nalpha is 0.  BladeNode = 4, Blade = 3

  Running InflowWind (v3.03.00, 26-Jul-2016).
  Opening InflowWind input file:  ./5MW_Baseline/NRELOffshrBsline5MW_InflowWind_Steady8mps.dat

  Running ServoDyn (v1.06.00a-bjj, 26-Jul-2016).

  Running ServoDyn Interface for Bladed Controllers (using Intel Fortran for Linux, 14-Oct-2015).

  Running HydroDyn (v2.05.00, 15-Mar-2016).
  Generating incident wave kinematics and current time history.

  Running SubDyn (v1.03.00, 11-Apr-2016).
    Calculating Internal Modal Eigenvectors
  Timestep: 0 of 60 seconds.

 FAST_Solution0:CalcOutputs_And_SolveForInputs:SolveOption2:SrvD_CalcOutput:Running with torque
 and pitch control of the NREL offshore 5MW baseline wind turbine from DISCON.dll as written by J.
 Jonkman of NREL/NWTC for use in the IEA Annex XXIII OC3 studies.


 FAST_Solution:CalcOutputs_And_SolveForInputs:SolveOption2:SrvD_CalcOutput:BladedInterface option
 was designed for an explicit-loose coupling scheme. Using last calculated values from DLL on all
 subsequent calls until time is advanced. Warning will not be displayed again.

+                                                                                                  
+ Timestep: 1 of 60 seconds. Estimated final completion at 13:24:33.
+                                                                                                  
+ Timestep: 2 of 60 seconds. Estimated final completion at 13:06:42.
+                                                                                                  
+ Timestep: 3 of 60 seconds. Estimated final completion at 13:06:45.
+                                                                                                  
+ Timestep: 4 of 60 seconds. Estimated final completion at 13:06:50.
+                                                                                                  
+ Timestep: 5 of 60 seconds. Estimated final completion at 13:06:39.
+                                                                                                  
+ Timestep: 6 of 60 seconds. Estimated final completion at 13:06:46.
+                                                                                                  
+ Timestep: 7 of 60 seconds. Estimated final completion at 13:06:48.
+                                                                                                  
+ Timestep: 8 of 60 seconds. Estimated final completion at 13:06:47.
+                                                                                                  
+ Timestep: 9 of 60 seconds. Estimated final completion at 13:06:47.
+                                                                                                  
+ Timestep: 10 of 60 seconds. Estimated final completion at 13:06:49.
+                                                                                                  
+ Timestep: 11 of 60 seconds. Estimated final completion at 13:06:52.
+                                                                                                  
+ Timestep: 12 of 60 seconds. Estimated final completion at 13:06:37.
+                                                                                                  
+ Timestep: 13 of 60 seconds. Estimated final completion at 13:06:40.
+                                                                                                  
+ Timestep: 14 of 60 seconds. Estimated final completion at 13:06:46.
+                                                                                                  
+ Timestep: 15 of 60 seconds. Estimated final completion at 13:06:42.
+                                                                                                  
+ Timestep: 16 of 60 seconds. Estimated final completion at 13:06:40.
+                                                                                                  
+ Timestep: 17 of 60 seconds. Estimated final completion at 13:06:47.
+                                                                                                  
+ Timestep: 18 of 60 seconds. Estimated final completion at 13:06:47.
+                                                                                                  
+ Timestep: 19 of 60 seconds. Estimated final completion at 13:06:47.
+                                                                                                  
+ Timestep: 20 of 60 seconds. Estimated final completion at 13:06:46.
+                                                                                                  
+ Timestep: 21 of 60 seconds. Estimated final completion at 13:06:43.
+                                                                                                  
+ Timestep: 22 of 60 seconds. Estimated final completion at 13:06:38.
+                                                                                                  
+ Timestep: 23 of 60 seconds. Estimated final completion at 13:06:53.
+                                                                                                  
+ Timestep: 24 of 60 seconds. Estimated final completion at 13:06:27.
+                                                                                                  
+ Timestep: 25 of 60 seconds. Estimated final completion at 13:06:36.
+                                                                                                  
+ Timestep: 26 of 60 seconds. Estimated final completion at 13:06:49.
+                                                                                                  
+ Timestep: 27 of 60 seconds. Estimated final completion at 13:06:37.
+                                                                                                  
+ Timestep: 28 of 60 seconds. Estimated final completion at 13:06:38.
+                                                                                                  
+ Timestep: 29 of 60 seconds. Estimated final completion at 13:06:42.
+                                                                                                  
+ Timestep: 30 of 60 seconds. Estimated final completion at 13:06:35.
+                                                                                                  
+ Timestep: 31 of 60 seconds. Estimated final completion at 13:06:36.
+                                                                                                  
+ Timestep: 32 of 60 seconds. Estimated final completion at 13:06:35.
+                                                                                                  
+ Timestep: 33 of 60 seconds. Estimated final completion at 13:06:29.
+                                                                                                  
+ Timestep: 34 of 60 seconds. Estimated final completion at 13:06:42.
+                                                                                                  
+ Timestep: 35 of 60 seconds. Estimated final completion at 13:06:43.
+                                                                                                  
+ Timestep: 36 of 60 seconds. Estimated final completion at 13:06:47.
+                                                                                                  
+ Timestep: 37 of 60 seconds. Estimated final completion at 13:06:44.
+                                                                                                  
+ Timestep: 38 of 60 seconds. Estimated final completion at 13:06:48.
+                                                                                                  
+ Timestep: 39 of 60 seconds. Estimated final completion at 13:06:44.
+                                                                                                  
+ Timestep: 40 of 60 seconds. Estimated final completion at 13:06:47.
+                                                                                                  
+ Timestep: 41 of 60 seconds. Estimated final completion at 13:06:42.
+                                                                                                  
+ Timestep: 42 of 60 seconds. Estimated final completion at 13:06:35.
+                                                                                                  
+ Timestep: 43 of 60 seconds. Estimated final completion at 13:06:37.
+                                                                                                  
+ Timestep: 44 of 60 seconds. Estimated final completion at 13:06:38.
+                                                                                                  
+ Timestep: 45 of 60 seconds. Estimated final completion at 13:06:44.
+                                                                                                  
+ Timestep: 46 of 60 seconds. Estimated final completion at 13:06:38.
+                                                                                                  
+ Timestep: 47 of 60 seconds. Estimated final completion at 13:06:44.
+                                                                                                  
+ Timestep: 48 of 60 seconds. Estimated final completion at 13:06:44.
+                                                                                                  
+ Timestep: 49 of 60 seconds. Estimated final completion at 13:06:39.
+                                                                                                  
+ Timestep: 50 of 60 seconds. Estimated final completion at 13:06:41.
+                                                                                                  
+ Timestep: 51 of 60 seconds. Estimated final completion at 13:06:41.
+                                                                                                  
+ Timestep: 52 of 60 seconds. Estimated final completion at 13:06:42.
+                                                                                                  
+ Timestep: 53 of 60 seconds. Estimated final completion at 13:06:41.
+                                                                                                  
+ Timestep: 54 of 60 seconds. Estimated final completion at 13:06:39.
+                                                                                                  
+ Timestep: 55 of 60 seconds. Estimated final completion at 13:06:40.
+                                                                                                  
+ Timestep: 56 of 60 seconds. Estimated final completion at 13:06:42.
+                                                                                                  
+ Timestep: 57 of 60 seconds. Estimated final completion at 13:06:42.
+                                                                                                  
+ Timestep: 58 of 60 seconds. Estimated final completion at 13:06:42.
+                                                                                                  
+ Timestep: 59 of 60 seconds. Estimated final completion at 13:06:42.
+                                                                                                  
+ Timestep: 60 of 60 seconds. Estimated final completion at 13:06:42.
+                                                                                                  

  Total Real Time:       14.634 minutes
  Total CPU Time:        14.589 minutes
  Simulation CPU Time:   13.944 minutes
  Simulated Time:        1.0001 minutes
  Time Ratio (Sim/CPU):  7.17262E-02

  OpenFAST terminated normally.

