
 **************************************************************************************************
 OpenFAST

 Copyright (C) 2020 National Renewable Energy Laboratory
 Copyright (C) 2020 Envision Energy USA LTD

 This program is licensed under Apache License Version 2.0 and comes with ABSOLUTELY NO WARRANTY.
 See the "LICENSE" file distributed with this software for details.
 **************************************************************************************************

 OpenFAST-v2.4.0-53-g8bfd804f
 Compile Info:
  - Compiler: GCC version 7.5.0
  - Architecture: 64 bit
  - Precision: double
  - Date: Nov  6 2020
  - Time: 18:38:52
 Execution Info:
  - Date: 11/06/2020
  - Time: 21:56:48+0000

 OpenFAST input file heading:
     FAST Certification Test #07: AOC 15/50 with many DOFs with free yaw and FF turbulence. Many
     parameters are pure fiction.

 Running ElastoDyn.
 Nodal outputs section of ElastoDyn input file not found or improperly formatted.
 Running AeroDyn.
 Nodal output section of AeroDyn input file not found or improperly formatted.
 Running InflowWind.

    Reading a 6x6 grid (18 m wide, 16 m to 34 m above ground) with a characteristic wind speed of
    12 m/s.

    Processed 1430 time steps of 20-Hz full-field data (71.45 seconds).
 Running ServoDyn.
  Time: 0 of 70 seconds.
 Warning: Turning off Unsteady Aerodynamics due to high angle of attack (67.571 deg). (node 2,
 blade 1)
 Warning: Turning off Unsteady Aerodynamics due to high angle of attack (57.5 deg). (node 3, blade
 1)
 Warning: Turning off Unsteady Aerodynamics due to high angle of attack (62.528 deg). (node 2,
 blade 2)
 Warning: Turning off Unsteady Aerodynamics due to high angle of attack (52.598 deg). (node 3,
 blade 2)
 Warning: Turning off Unsteady Aerodynamics due to high angle of attack (60.33 deg). (node 2,
 blade 3)
 Warning: Turning off Unsteady Aerodynamics due to high angle of attack (53.342 deg). (node 3,
 blade 3)
 Warning: Turning off Unsteady Aerodynamics due to high angle of attack (45.251 deg). (node 4,
 blade 1)
 Warning: Turning off Unsteady Aerodynamics due to high angle of attack (45.181 deg). (node 4,
 blade 3)
 Warning: Turning off Unsteady Aerodynamics due to high angle of attack (45.048 deg). (node 4,
 blade 2)
 Warning: Turning off Unsteady Aerodynamics due to high angle of attack (170.77 deg). (node 1,
 blade 2)
 Warning: Turning off Unsteady Aerodynamics due to high angle of attack (170.77 deg). (node 1,
 blade 1)
 Warning: Turning off Unsteady Aerodynamics due to high angle of attack (170.77 deg). (node 1,
 blade 3)
                                                                                                   Time: 5 of 70 seconds.  Estimated final completion at 21:58:27.                                                                                                                                     Time: 10 of 70 seconds.  Estimated final completion at 21:58:36.                                  Warning: Turning off Unsteady Aerodynamics due to high angle of attack (45.161 deg). (node 5,
 blade 2)
                                                                                                   Time: 15 of 70 seconds.  Estimated final completion at 21:58:35.                                                                                                                                    Time: 20 of 70 seconds.  Estimated final completion at 21:58:29.                                                                                                                                    Time: 25 of 70 seconds.  Estimated final completion at 21:58:28.                                                                                                                                    Time: 30 of 70 seconds.  Estimated final completion at 21:58:27.                                                                                                                                    Time: 35 of 70 seconds.  Estimated final completion at 21:58:27.                                                                                                                                    Time: 40 of 70 seconds.  Estimated final completion at 21:58:27.                                                                                                                                    Time: 45 of 70 seconds.  Estimated final completion at 21:58:26.                                                                                                                                    Time: 50 of 70 seconds.  Estimated final completion at 21:58:26.                                                                                                                                    Time: 55 of 70 seconds.  Estimated final completion at 21:58:27.                                                                                                                                    Time: 60 of 70 seconds.  Estimated final completion at 21:58:26.                                                                                                                                    Time: 65 of 70 seconds.  Estimated final completion at 21:58:27.                                                                                                                                    Time: 70 of 70 seconds.  Estimated final completion at 21:58:27.                                                                                                                                   
  Total Real Time:       1.6465 minutes
  Total CPU Time:        1.6357 minutes
  Simulation CPU Time:   1.6349 minutes
  Simulated Time:        1.1667 minutes
  Time Ratio (Sim/CPU):  0.71358

  OpenFAST terminated normally.

