
This summary file was generated by TurbSim (from OpenFAST-v3.0.0-98-g7bde6b54) on 14-Sep-2021 at 11:37:08.


Runtime Options:

2073448544  Random seed #1
 -75384093  Random seed #2
         F  Output binary HH turbulence parameters?
         F  Output formatted turbulence parameters?
         F  Output AeroDyn HH files?
         T  Output AeroDyn FF files?
         F  Output BLADED FF files?
         F  Output tower data?
         F  Output HAWC FF files?
         F  Output formatted FF files?
         F  Output coherent turbulence time step file?
 1 -   HUB  IEC turbulence models scaled to exact specified standard deviation


Turbine/Model Specifications:

        35  Vertical grid-point matrix dimension
       101  Horizontal grid-point matrix dimension
     0.100  Time step [seconds]
   200.000  Analysis time [seconds]
   200.000  Usable output time [seconds]
   175.000  Hub height [m]
   340.000  Grid height [m]
  1000.000  Grid width [m]
     0.000  Vertical flow angle [degrees]
     0.000  Horizontal flow angle [degrees]


Meteorological Boundary Conditions:

    IECKAI  IEC Kaimal spectral model
         1  IEC standard: IEC 61400-1 Ed. 3: 2005
    10.000  Percent turbulence intensity, IEC 61400-1 Ed. 3: 2005
       NTM  IEC Normal Turbulence Model
       N/A  IEC Extreme Turbulence Model (ETM) "c" parameter [m/s]
       PL   Wind profile type
    85.000  Reference height [m]
     8.000  Reference wind speed [m/s]
       N/A  Jet height [m]
     0.200  Power law exponent
     0.030  Surface roughness length [m]


Non-IEC Meteorological Boundary Conditions:

       N/A  Site latitude [degrees]
       N/A  Gradient Richardson number
       N/A  Friction or shear velocity [m/s]
       N/A  Mixing layer depth [m]
       N/A  Mean hub u'w' Reynolds stress
       N/A  Mean hub u'v' Reynolds stress
       N/A  Mean hub v'w' Reynolds stress


Spatial Coherence Models:

       IEC  u-component coherence model
       IEC  v-component coherence model
       IEC  w-component coherence model
(   12.000, 0.353E-03)  u-component coherence parameters
(   12.000, 0.353E-03)  v-component coherence parameters
(   12.000, 0.353E-03)  w-component coherence parameters
       N/A  Coherence exponent


You have requested that the following file(s) be generated:

   ./glue-codes\fast-farm/TSinflow/90m_08mps.bts (AeroDyn/TurbSim full-field wind file)


Turbulence Simulation Scaling Parameter Summary:

   Turbulence model used                            =  IEC Kaimal
   Turbulence characteristic                        =  User-specified
   IEC standard                                     =  IEC 61400-1 Ed. 3: 2005
   Mean wind speed at hub height                    =    9.243 m/s
   Characteristic value of standard deviation       =    0.924 m/s
   Turbulence scale                                 =   42.000 m
   u-component integral scale                       =  340.200 m
   Coherency scale                                  =  340.200 m
   Characteristic value of hub turbulence intensity =   10.000%
   Gradient Richardson number                       =    0.000

   Wind profile type                                =  Power law
   Power law exponent                               =    0.200
   Mean shear across rotor disk                     =    0.018 (m/s)/m
   Assumed rotor diameter                           =  340.000 m
   Surface roughness length                         =    0.030 m

   Nyquist frequency of turbulent wind field        =    5.000 Hz

   Number of time steps in the FFT                  =     2000
   Number of time steps output                      =     2000
   Number of points simulated                       =     3535


Mean Flow Angles:

   Vertical   =   0.0 degrees
   Horizontal =   0.0 degrees

Mean Wind Speed Profile:

   Height    Wind Speed   Horizontal Angle  Vertical Angle  U-comp (X)   V-comp (Y)   W-comp (Z)
     (m)        (m/s)         (degrees)       (degrees)       (m/s)        (m/s)        (m/s)   
   ------    ----------   ----------------  --------------  ----------   ----------   ----------
    345.0       10.59            0.00            0.00         10.59         0.00         0.00
    335.0       10.52            0.00            0.00         10.52         0.00         0.00
    325.0       10.46            0.00            0.00         10.46         0.00         0.00
    315.0       10.40            0.00            0.00         10.40         0.00         0.00
    305.0       10.33            0.00            0.00         10.33         0.00         0.00
    295.0       10.26            0.00            0.00         10.26         0.00         0.00
    285.0       10.19            0.00            0.00         10.19         0.00         0.00
    275.0       10.12            0.00            0.00         10.12         0.00         0.00
    265.0       10.04            0.00            0.00         10.04         0.00         0.00
    255.0        9.97            0.00            0.00          9.97         0.00         0.00
    245.0        9.89            0.00            0.00          9.89         0.00         0.00
    235.0        9.80            0.00            0.00          9.80         0.00         0.00
    225.0        9.72            0.00            0.00          9.72         0.00         0.00
    215.0        9.63            0.00            0.00          9.63         0.00         0.00
    205.0        9.54            0.00            0.00          9.54         0.00         0.00
    195.0        9.45            0.00            0.00          9.45         0.00         0.00
    185.0        9.35            0.00            0.00          9.35         0.00         0.00
    175.0        9.24            0.00            0.00          9.24         0.00         0.00
    165.0        9.13            0.00            0.00          9.13         0.00         0.00
    155.0        9.02            0.00            0.00          9.02         0.00         0.00
    145.0        8.90            0.00            0.00          8.90         0.00         0.00
    135.0        8.78            0.00            0.00          8.78         0.00         0.00
    125.0        8.64            0.00            0.00          8.64         0.00         0.00
    115.0        8.50            0.00            0.00          8.50         0.00         0.00
    105.0        8.35            0.00            0.00          8.35         0.00         0.00
     95.0        8.18            0.00            0.00          8.18         0.00         0.00
     85.0        8.00            0.00            0.00          8.00         0.00         0.00
     75.0        7.80            0.00            0.00          7.80         0.00         0.00
     65.0        7.58            0.00            0.00          7.58         0.00         0.00
     55.0        7.33            0.00            0.00          7.33         0.00         0.00
     45.0        7.04            0.00            0.00          7.04         0.00         0.00
     35.0        6.70            0.00            0.00          6.70         0.00         0.00
     25.0        6.26            0.00            0.00          6.26         0.00         0.00
     15.0        5.65            0.00            0.00          5.65         0.00         0.00
      5.0        4.54            0.00            0.00          4.54         0.00         0.00


Harvested Random Seeds after Generation of the Random Numbers:

   1103834189 Harvested seed # 1
    181067638 Harvested seed # 2


Scaling statistics from the hub grid point:

  Component  Target Sigma (m/s)  Simulated Sigma (m/s)  Scaling Factor
  ---------  ------------------  ---------------------  --------------
     u'             0.924                0.714                1.295
     v'             0.739                0.708                1.045
     w'             0.462                0.424                1.090


Hub-Height Simulated Turbulence Statistical Summary:

   Type of Wind        Min (m/s)   Mean (m/s)    Max (m/s)  Sigma (m/s)       TI (%)
   ----------------    ---------   ----------    ---------  -----------       ------
   Longitudinal (u)         6.82         9.24        11.97        0.924       10.000
   Lateral (v)             -2.36         0.00         1.93        0.739        8.000
   Vertical (w)            -1.44         0.00         1.44        0.462        5.000
   U component              6.82         9.24        11.97        0.924       10.000
   V component             -2.36         0.00         1.93        0.739        8.000
   W component             -1.44         0.00         1.44        0.462        5.000
   Horizontal (U&V)         6.86         9.27        11.97        0.908        9.793
   Total                    6.92         9.29        11.98        0.908        9.780

                       Min Reynolds     Mean Reynolds    Max Reynolds    Correlation
   Product             Stress (m/s)^2   Stress (m/s)^2   Stress (m/s)^2  Coefficient
   ----------------    --------------   --------------   --------------  -----------
   u'w'                     -1.918            -0.034             2.053        -0.080
   u'v'                     -2.860            -0.068             3.649        -0.099
   v'w'                     -2.114            -0.061             1.652        -0.178


   Friction Velocity (Ustar)  =      0.185 m/s
   Maximum Instantaneous TKE  =      3.881 (m/s)^2
   Maximum Instantaneous CTKE =      2.043 (m/s)^2


Grid Point Variance Summary:

   Y-coord -500.00 -490.00 -480.00 -470.00 -460.00 -450.00 -440.00 -430.00 -420.00 -410.00 -400.00 -390.00 -380.00 -370.00 -360.00 -350.00 -340.00 -330.00 -320.00 -310.00 -300.00 -290.00 -280.00 -270.00 -260.00 -250.00 -240.00 -230.00 -220.00 -210.00 -200.00 -190.00 -180.00 -170.00 -160.00 -150.00 -140.00 -130.00 -120.00 -110.00 -100.00  -90.00  -80.00  -70.00  -60.00  -50.00  -40.00  -30.00  -20.00  -10.00    0.00   10.00   20.00   30.00   40.00   50.00   60.00   70.00   80.00   90.00  100.00  110.00  120.00  130.00  140.00  150.00  160.00  170.00  180.00  190.00  200.00  210.00  220.00  230.00  240.00  250.00  260.00  270.00  280.00  290.00  300.00  310.00  320.00  330.00  340.00  350.00  360.00  370.00  380.00  390.00  400.00  410.00  420.00  430.00  440.00  450.00  460.00  470.00  480.00  490.00  500.00

   Height   Standard deviation at grid points for the u component:
   345.00    1.368   1.319   1.260   1.043   1.034   1.003   1.034   1.167   1.183   1.219   1.259   1.250   1.345   1.229   1.110   1.165   0.949   0.929   0.927   1.159   1.202   1.059   0.843   0.969   0.905   0.772   0.999   1.142   1.124   1.101   1.067   1.006   0.990   0.918   0.898   0.902   0.961   1.220   1.274   1.386   1.392   1.206   1.084   1.110   1.022   0.973   1.125   1.163   1.042   1.092   1.120   1.141   0.927   1.209   1.182   1.156   1.146   1.180   1.084   1.236   1.372   1.289   1.217   1.189   1.115   1.194   1.412   1.458   1.268   1.608   1.638   1.437   1.438   1.204   1.122   1.308   1.413   1.233   0.997   0.968   1.001   0.957   0.799   0.941   1.015   1.088   1.190   1.152   1.218   1.262   1.202   1.287   1.224   0.937   0.876   0.919   0.960   0.937   0.706   0.823   0.886
   335.00    1.161   1.211   1.267   1.008   1.100   1.088   1.111   1.169   1.425   1.337   1.220   1.290   1.419   1.306   1.380   1.354   1.082   1.095   1.007   1.241   1.157   1.006   0.917   1.033   0.901   0.924   1.188   1.075   1.171   0.923   0.988   0.969   0.813   0.789   0.858   0.767   0.924   1.238   1.430   1.457   1.347   1.238   1.319   1.156   1.191   0.996   1.194   1.184   1.202   1.322   1.168   1.114   1.128   1.291   1.241   1.049   1.280   1.074   1.062   1.214   1.360   1.254   1.285   1.184   0.955   1.012   1.104   1.387   1.354   1.575   1.583   1.364   1.300   1.372   1.184   1.325   1.349   1.136   1.074   0.789   0.901   0.874   0.753   0.840   0.862   0.958   1.072   1.173   1.130   1.157   1.215   1.257   1.363   1.081   0.913   0.933   0.883   0.789   0.662   0.755   0.872
   325.00    1.132   1.142   1.085   0.962   0.934   1.122   0.986   1.142   1.237   1.326   1.188   1.432   1.492   1.424   1.412   1.390   1.087   1.294   1.209   1.235   1.195   0.989   1.060   1.075   0.931   1.080   1.213   1.272   0.961   0.864   0.886   0.799   0.845   0.978   1.056   1.017   0.913   1.223   1.360   1.516   1.261   1.230   1.164   1.161   1.270   1.069   1.138   1.292   1.290   1.411   1.289   1.178   1.043   1.149   1.132   1.330   1.183   1.079   0.955   1.199   1.227   1.290   1.377   1.223   1.124   1.147   1.160   1.265   1.400   1.581   1.450   1.313   1.168   1.204   1.343   1.206   1.207   1.175   1.071   0.831   0.854   0.732   0.768   0.749   0.797   0.881   1.048   1.227   1.106   1.127   1.158   1.198   1.190   1.043   1.070   1.010   0.836   0.835   0.890   0.844   0.861
   315.00    1.011   1.027   0.943   0.997   1.044   1.077   1.016   1.093   1.235   1.184   1.201   1.360   1.439   1.280   1.251   1.408   1.357   1.280   1.288   1.271   1.277   1.013   1.149   1.139   1.071   1.288   1.382   1.234   1.079   0.939   0.845   0.867   1.031   0.943   1.030   0.979   0.910   1.182   1.376   1.486   1.507   1.339   1.267   1.261   1.323   1.300   1.248   1.264   1.166   1.406   1.272   1.289   1.167   1.046   0.993   1.169   1.330   1.104   1.236   1.066   1.116   1.119   1.240   1.143   1.033   1.198   1.244   1.141   1.286   1.378   1.317   1.380   1.300   1.215   1.317   1.243   1.171   1.087   1.027   0.954   0.685   0.830   0.806   0.855   0.793   0.832   1.125   1.328   1.272   1.126   1.035   1.050   0.937   1.017   1.099   1.097   1.033   0.942   0.987   0.915   0.973
   305.00    0.954   0.974   0.962   1.105   1.260   1.142   1.015   1.264   1.234   1.242   1.199   1.312   1.298   1.156   1.306   1.468   1.345   1.418   1.260   1.141   1.099   0.938   1.178   1.411   1.234   1.303   1.234   1.255   1.073   0.986   0.966   0.975   1.168   0.958   1.019   0.815   1.025   1.160   1.333   1.439   1.504   1.327   1.129   1.096   1.190   1.261   1.336   1.105   1.391   1.463   1.423   1.326   1.092   0.971   1.135   1.134   1.170   1.116   1.125   1.181   1.057   1.184   1.206   1.109   0.937   1.189   1.342   1.417   1.309   1.305   1.253   1.086   1.176   1.007   1.069   1.115   1.023   0.937   0.982   0.947   0.939   0.763   0.764   1.023   0.894   0.907   1.110   1.272   1.143   1.080   1.039   1.103   0.920   1.091   0.936   1.052   0.986   1.029   0.917   1.007   1.035
   295.00    1.042   0.960   0.923   1.052   1.183   1.061   1.043   1.271   1.296   1.139   0.972   1.145   1.140   1.137   1.261   1.422   1.332   1.363   1.380   1.207   1.374   1.156   1.320   1.406   1.443   1.278   1.259   1.167   1.139   1.119   1.234   1.291   1.023   1.188   1.054   0.954   1.054   1.098   1.268   1.358   1.457   1.286   1.230   1.124   1.090   1.299   1.409   1.440   1.381   1.284   1.270   1.170   1.181   1.136   1.108   1.017   1.049   0.890   0.972   1.070   1.001   1.071   1.109   1.175   1.110   1.159   1.378   1.358   1.355   1.339   1.316   1.327   1.249   1.197   1.124   1.080   1.070   0.915   0.984   1.014   0.903   0.856   0.875   1.009   0.921   0.968   1.095   1.183   1.246   1.224   0.994   1.068   1.155   1.036   0.983   0.980   1.006   0.874   0.829   0.869   0.964
   285.00    1.068   1.123   0.900   1.003   1.171   1.046   1.004   1.088   1.219   1.142   0.856   0.976   1.188   1.210   1.376   1.308   1.317   1.107   1.225   1.206   1.329   1.293   1.086   1.196   1.116   1.142   1.300   1.370   1.263   1.233   1.251   1.282   1.126   1.264   1.243   1.224   1.063   1.109   1.230   1.102   1.405   1.332   1.353   1.270   1.184   1.120   1.368   1.461   1.450   1.324   1.296   1.079   1.033   1.075   1.125   1.237   1.225   1.009   0.914   1.099   1.204   1.127   1.111   1.305   1.067   1.196   1.299   1.365   1.384   1.322   1.150   1.319   1.186   1.242   1.081   0.870   0.781   0.941   0.948   0.885   0.983   0.936   0.865   0.781   1.074   1.206   0.949   1.013   0.992   1.144   1.012   0.948   1.086   1.068   1.012   1.067   1.001   0.949   0.789   0.809   0.887
   275.00    0.906   0.968   0.898   1.007   1.084   0.940   1.053   0.971   1.090   0.981   1.002   0.917   1.028   1.112   1.281   1.300   1.098   1.125   1.168   1.101   1.111   1.215   1.097   1.229   1.131   1.151   1.254   1.149   1.375   1.584   1.471   1.350   1.251   1.294   1.369   1.255   1.319   1.270   1.167   1.315   1.415   1.449   1.250   1.271   1.466   1.255   1.341   1.239   1.387   1.223   1.147   1.121   1.042   1.059   1.091   1.211   1.254   1.031   1.012   0.945   1.194   1.281   1.276   1.213   1.154   1.303   1.150   1.141   1.221   1.078   1.206   1.228   1.170   1.083   0.940   0.897   0.828   0.925   0.857   0.931   0.856   0.879   0.839   0.934   0.995   1.153   1.061   1.011   1.120   1.125   1.164   1.025   1.081   1.068   1.013   1.006   0.844   0.802   0.813   0.882   0.939
   265.00    0.972   0.860   0.821   0.927   0.934   0.839   0.799   0.935   0.876   0.776   0.816   0.861   0.871   0.888   1.179   1.309   1.225   1.044   1.123   0.992   0.931   0.966   1.174   1.396   1.203   1.366   1.507   1.217   1.356   1.578   1.468   1.571   1.473   1.492   1.318   1.250   1.240   1.376   1.361   1.425   1.565   1.298   1.246   1.453   1.390   1.212   1.236   1.301   1.368   1.244   1.222   1.340   1.190   1.046   1.133   1.241   1.254   1.095   1.007   1.004   1.237   1.280   1.248   1.220   1.367   1.388   1.016   1.098   1.107   1.081   1.226   1.298   1.035   0.921   0.870   0.756   0.866   0.921   0.923   0.880   0.776   0.929   0.976   0.834   1.019   1.174   1.004   0.811   0.939   1.100   0.946   0.914   0.870   1.082   0.867   0.911   0.864   0.831   0.800   0.919   0.995
   255.00    0.840   0.825   0.868   0.745   0.831   0.886   0.780   0.778   0.760   0.782   0.738   0.853   0.980   1.113   1.409   1.243   1.303   1.092   0.893   1.074   0.960   0.938   1.174   1.350   1.447   1.219   1.356   1.188   1.264   1.530   1.642   1.559   1.537   1.424   1.522   1.322   1.292   1.312   1.412   1.500   1.502   1.383   1.431   1.462   1.261   1.226   1.092   1.333   1.464   1.228   1.376   1.264   1.297   1.238   1.096   1.065   1.180   1.056   1.061   1.036   1.282   1.128   1.145   1.055   1.325   1.254   1.197   1.231   1.128   1.193   1.162   1.123   1.099   0.901   0.691   0.887   0.953   1.001   0.915   0.866   0.904   0.915   1.030   0.883   0.968   1.083   1.139   0.953   0.963   1.091   0.963   0.919   0.922   0.843   0.936   0.921   0.927   0.881   0.780   0.906   1.081
   245.00    0.904   0.884   0.799   0.878   0.815   0.833   0.801   0.830   0.779   0.700   0.758   0.845   0.993   1.128   1.269   1.348   1.221   1.078   1.051   1.131   1.008   1.137   1.044   1.249   1.252   1.282   1.196   1.190   1.264   1.461   1.674   1.701   1.716   1.583   1.520   1.456   1.509   1.512   1.407   1.473   1.317   1.480   1.289   1.341   1.113   1.061   1.267   1.409   1.258   1.342   1.373   1.093   1.109   1.068   0.970   0.923   1.045   1.021   1.045   1.158   1.289   1.199   1.223   1.472   1.471   1.470   1.392   1.471   1.324   1.249   1.179   1.030   1.118   0.963   0.917   0.990   1.047   0.938   0.882   0.832   0.983   1.062   1.062   1.135   1.196   1.251   1.029   1.101   1.067   0.942   0.944   0.914   0.867   0.818   0.863   0.881   0.933   0.859   0.924   0.863   1.042
   235.00    0.818   0.801   0.893   0.844   0.855   0.820   0.891   0.839   0.867   0.880   0.847   0.900   1.070   1.023   1.051   1.146   1.131   1.096   1.060   1.073   0.989   1.167   1.110   1.269   1.101   1.161   1.164   1.237   1.476   1.462   1.541   1.706   1.774   1.673   1.631   1.762   1.559   1.802   1.651   1.478   1.389   1.570   1.362   1.342   1.061   1.213   1.263   1.234   1.381   1.281   1.294   1.083   1.043   0.905   1.041   0.882   0.911   1.025   1.131   1.321   1.275   1.225   1.397   1.304   1.478   1.568   1.478   1.293   1.276   1.157   1.117   1.129   1.048   1.023   0.926   0.990   1.011   0.896   0.773   0.893   0.892   0.976   0.871   0.890   0.900   1.048   1.044   0.847   0.986   0.894   0.831   0.880   0.909   1.039   0.988   0.987   0.908   0.955   1.031   1.045   1.016
   225.00    0.797   0.768   0.829   0.824   0.894   0.963   1.028   0.959   0.914   0.845   0.778   0.917   0.941   1.020   1.101   1.090   0.992   1.127   1.135   1.157   1.023   1.128   1.148   1.139   1.127   1.019   1.137   1.361   1.370   1.570   1.641   1.788   1.631   1.793   1.891   1.695   1.631   1.618   1.635   1.469   1.297   1.332   1.432   1.261   1.118   1.163   1.102   1.332   1.310   1.205   1.258   0.997   1.017   1.023   0.940   0.904   0.866   1.115   1.205   1.348   1.370   1.457   1.442   1.307   1.462   1.483   1.538   1.304   1.103   1.019   1.119   0.993   1.086   1.150   1.080   1.019   1.160   1.070   0.967   0.837   0.845   0.881   0.777   0.839   0.824   0.953   1.056   0.923   0.814   0.919   0.785   0.820   0.985   1.119   1.113   1.096   0.952   1.052   1.000   1.053   1.078
   215.00    0.867   0.839   0.847   0.832   0.833   0.949   0.988   0.976   0.775   0.772   0.903   0.876   0.864   0.927   0.893   0.886   0.971   1.273   1.224   1.107   1.297   1.061   1.204   1.117   1.140   1.136   1.116   1.395   1.451   1.465   1.698   1.608   1.672   1.745   1.648   1.756   1.667   1.559   1.350   1.485   1.338   1.307   1.182   1.261   1.337   1.215   1.112   1.247   1.266   0.964   1.053   1.016   0.983   0.989   0.916   0.829   0.800   1.097   1.183   1.363   1.446   1.472   1.476   1.498   1.450   1.352   1.407   1.330   1.171   0.918   1.122   0.977   1.000   1.259   1.302   1.225   1.274   1.248   1.050   0.829   0.852   0.781   0.725   0.783   0.738   0.883   1.071   0.952   1.022   0.904   0.821   0.890   0.971   1.016   0.959   0.959   0.965   1.017   1.078   0.980   0.986
   205.00    0.804   0.821   0.844   0.809   0.898   1.009   0.963   0.811   0.793   0.736   0.749   0.887   0.870   0.895   0.985   1.129   1.233   1.249   1.274   1.353   1.373   1.118   0.975   1.178   1.140   1.109   0.994   1.184   1.386   1.500   1.509   1.476   1.330   1.534   1.656   1.681   1.416   1.421   1.358   1.374   1.444   1.418   1.332   1.284   1.270   1.121   1.011   1.107   1.104   0.984   0.918   0.910   0.894   0.904   0.842   0.816   0.924   1.081   1.247   1.429   1.419   1.278   1.444   1.541   1.494   1.428   1.149   1.297   1.240   1.029   1.131   1.145   1.120   1.219   1.148   1.259   1.258   1.106   0.897   0.823   0.807   0.832   0.837   0.842   0.887   0.892   0.843   1.034   1.007   1.092   0.996   0.853   0.830   0.856   0.880   0.933   0.899   1.020   0.995   0.995   1.035
   195.00    0.788   0.851   0.887   0.919   0.945   0.967   0.922   0.862   1.071   0.950   0.925   0.887   0.904   0.848   1.118   1.155   1.155   1.244   1.289   1.293   1.235   1.204   1.243   1.180   0.959   1.033   1.000   1.204   1.395   1.288   1.238   1.409   1.484   1.391   1.459   1.517   1.285   1.231   1.244   1.442   1.485   1.243   1.249   1.133   1.138   1.167   1.180   0.956   0.887   0.871   0.994   0.894   1.064   0.923   0.894   0.843   0.876   1.128   1.320   1.553   1.564   1.410   1.469   1.420   1.243   1.222   1.133   1.220   1.238   1.111   1.139   0.960   0.951   1.161   1.198   1.228   1.240   1.093   0.870   0.816   0.880   0.914   0.818   0.836   0.845   0.844   0.723   0.820   0.898   1.089   0.910   0.807   0.793   0.881   0.903   1.029   1.126   0.946   1.139   1.067   1.000
   185.00    0.709   0.762   0.913   1.050   1.016   0.904   0.824   0.852   0.927   0.959   1.021   1.079   1.015   0.969   1.127   1.090   1.144   1.318   1.178   1.147   1.332   1.163   1.283   1.178   1.120   0.921   0.898   1.231   1.378   1.512   1.312   1.335   1.361   1.345   1.355   1.256   1.295   1.382   1.268   1.272   1.365   1.337   1.146   1.188   1.084   1.122   1.054   1.069   1.019   0.875   1.050   0.904   1.034   0.975   0.957   0.844   0.949   1.105   1.120   1.341   1.332   1.352   1.284   1.431   1.449   1.377   1.243   1.059   1.065   1.061   0.949   0.936   0.975   1.067   1.133   1.217   1.116   0.879   0.787   0.878   0.889   0.813   0.944   0.718   0.850   0.790   0.844   0.954   0.915   0.988   1.007   0.743   0.856   0.925   0.951   0.989   1.121   1.143   1.264   1.140   1.010
   175.00    0.902   0.817   0.935   0.860   0.959   1.035   0.833   0.782   0.945   1.030   1.062   1.035   0.954   1.113   1.097   1.110   1.111   1.264   1.216   1.154   1.306   1.237   1.261   1.200   1.155   1.070   1.074   1.298   1.387   1.477   1.417   1.351   1.354   1.137   1.077   1.153   1.255   1.133   1.209   1.000   1.251   1.262   1.139   1.064   1.083   1.162   1.105   1.192   1.096   0.829   0.924   0.902   0.970   0.796   0.811   0.830   0.908   0.968   1.083   1.172   1.254   1.265   1.305   1.336   1.332   1.182   1.057   1.135   1.114   0.956   0.882   0.832   0.817   0.901   0.882   1.015   1.059   0.816   0.779   0.803   0.765   0.769   0.817   0.805   0.693   0.874   0.940   0.895   1.110   1.078   1.047   1.003   0.845   0.825   0.859   0.849   0.986   1.043   1.079   1.176   1.151
   165.00    0.886   1.000   0.843   0.746   0.784   0.787   0.944   0.925   0.880   0.893   1.037   0.990   1.027   1.051   1.040   0.874   0.876   1.128   1.208   1.359   1.257   1.144   1.281   1.423   1.268   1.194   1.195   1.340   1.299   1.276   1.297   1.448   1.242   1.235   1.096   1.030   1.229   1.229   1.159   1.091   1.175   1.187   1.121   0.929   0.890   1.076   1.229   1.162   0.962   0.934   1.041   1.151   0.889   0.825   0.849   0.854   1.001   0.962   1.067   1.110   1.125   1.028   1.146   1.064   1.123   1.148   0.956   0.961   0.884   0.881   0.699   0.822   0.798   0.959   1.009   0.949   0.867   0.822   0.795   0.919   0.891   0.790   0.832   0.696   0.734   0.929   0.992   1.009   1.149   1.186   1.147   1.124   0.907   0.877   0.926   0.820   0.850   0.973   1.036   1.094   0.929
   155.00    0.834   0.966   0.856   0.823   0.731   0.744   0.802   0.868   0.788   1.029   1.072   0.916   0.891   1.079   1.049   0.929   1.077   1.110   1.132   1.298   1.223   1.115   1.308   1.385   1.286   1.330   1.379   1.240   1.123   1.086   1.400   1.447   1.291   1.211   1.135   1.096   1.211   1.164   1.248   1.111   1.214   1.062   0.989   0.914   1.145   1.073   1.214   1.207   1.042   0.881   0.940   1.121   1.108   0.993   0.887   0.916   0.783   0.882   0.971   0.831   0.972   1.010   1.063   0.924   0.978   0.993   0.954   0.844   0.892   0.810   0.754   0.865   0.853   0.957   0.856   1.026   0.894   0.788   0.890   0.871   0.916   0.948   0.760   0.701   0.824   0.923   1.003   0.998   1.025   1.043   1.119   1.152   0.902   0.893   0.901   0.881   0.988   0.860   0.896   0.993   0.969
   145.00    0.801   0.782   0.891   0.901   0.768   0.847   0.940   0.997   0.826   0.972   1.069   0.988   0.949   1.086   1.018   1.117   1.285   1.050   1.041   1.215   1.308   1.147   1.353   1.244   1.270   1.244   1.283   1.198   1.319   1.174   1.392   1.530   1.514   1.231   1.080   1.066   1.135   0.979   1.174   1.011   1.100   1.012   1.140   1.121   1.016   1.255   1.123   1.092   1.014   0.980   1.239   1.303   1.179   0.943   0.975   0.831   0.833   0.923   0.817   0.819   0.812   0.870   0.875   0.863   0.882   0.956   0.821   0.898   0.899   0.805   0.909   1.011   1.029   0.902   0.929   1.106   0.976   0.903   1.044   1.122   1.024   0.972   0.784   0.692   0.853   0.850   0.869   0.984   0.970   1.060   0.991   0.982   1.046   1.058   0.934   0.857   0.881   0.850   0.838   0.771   0.818
   135.00    0.846   0.890   0.827   0.932   0.936   0.917   0.989   1.003   0.962   1.013   0.957   0.912   0.937   1.066   1.083   1.142   1.248   1.205   1.072   1.269   1.284   1.372   1.366   1.275   1.482   1.276   1.211   1.362   1.331   1.442   1.295   1.336   1.338   1.139   0.943   0.853   1.053   1.074   1.283   1.049   1.181   1.002   1.216   1.345   1.234   1.244   1.117   0.999   0.936   1.058   1.081   1.341   1.198   1.092   1.030   0.952   0.889   0.979   0.938   0.979   0.831   0.855   0.748   0.776   0.746   0.821   0.880   0.772   0.774   0.907   0.946   0.848   0.997   0.979   0.937   0.969   1.090   0.952   1.100   1.157   1.133   0.847   0.960   0.770   0.927   0.998   1.035   0.883   1.011   1.103   1.092   0.973   1.112   0.897   0.950   0.996   0.957   0.801   0.824   0.830   0.964
   125.00    0.820   0.773   0.839   0.877   0.977   0.940   1.026   0.984   1.041   1.045   0.871   0.946   0.905   1.005   1.121   1.093   1.179   1.036   1.194   1.368   1.304   1.378   1.458   1.294   1.222   1.334   1.288   1.208   1.387   1.434   1.388   1.083   1.076   0.933   0.887   0.943   0.930   1.032   1.115   1.165   1.193   1.203   1.300   1.378   1.276   1.132   1.128   1.013   1.102   1.223   1.358   1.465   1.430   1.155   1.090   1.100   0.957   1.041   1.029   0.904   0.812   0.690   0.743   0.835   0.798   0.918   0.777   0.746   0.681   0.861   1.014   0.948   0.995   1.179   1.174   0.996   0.988   1.032   1.130   1.147   1.276   0.921   0.971   0.846   0.934   1.036   0.912   1.073   1.151   0.935   1.006   1.016   1.128   0.908   0.993   1.014   1.088   0.817   0.939   1.020   1.046
   115.00    0.749   0.888   1.051   1.021   1.084   1.018   1.051   0.872   0.960   0.929   0.859   0.908   0.997   1.130   1.204   1.268   1.323   1.178   1.280   1.315   1.303   1.248   1.307   1.084   1.084   1.144   1.177   1.110   1.198   1.233   1.260   1.146   0.934   0.788   0.768   0.860   0.830   0.834   0.920   0.987   1.170   1.204   1.411   1.366   1.345   1.311   1.104   1.070   1.021   1.125   1.328   1.378   1.403   1.110   0.931   0.907   1.069   1.182   1.047   0.787   0.676   0.690   0.815   0.752   0.802   0.872   0.960   0.811   0.795   0.805   0.968   0.976   1.098   1.137   1.028   0.996   0.884   0.924   1.131   1.196   1.172   1.095   0.861   1.058   1.015   0.903   1.029   1.114   1.257   1.039   0.952   0.869   0.909   0.927   0.843   0.953   0.839   0.893   1.040   1.098   1.146
   105.00    0.905   0.902   0.968   0.935   0.892   0.990   0.928   0.887   0.766   0.845   0.832   0.797   0.943   1.083   1.035   1.019   1.221   1.175   1.107   1.195   1.173   1.139   1.187   1.034   1.088   1.044   1.200   1.125   1.144   1.017   1.102   1.051   0.923   0.838   0.904   0.933   0.937   0.829   0.878   1.050   1.131   1.212   1.277   1.259   1.343   1.321   1.233   1.178   1.093   1.136   1.236   1.362   1.346   1.186   0.829   0.944   1.108   1.086   0.844   0.818   0.698   0.732   0.765   0.746   0.839   0.987   0.797   0.854   0.856   0.860   0.865   1.012   1.112   0.970   0.889   0.949   0.865   1.043   1.063   1.073   1.135   0.879   0.840   1.039   1.085   1.194   1.116   1.124   1.265   1.305   1.038   0.774   0.749   0.827   0.834   0.908   0.840   0.940   1.041   1.045   1.163
    95.00    0.857   0.994   0.828   0.899   0.853   0.977   0.909   0.918   0.887   0.720   0.843   0.898   0.966   1.037   1.036   1.123   1.285   1.013   1.090   1.001   1.075   1.096   1.300   1.222   1.031   1.050   1.197   1.121   1.148   1.005   1.032   0.962   1.056   0.924   0.834   0.923   0.872   0.965   0.930   0.902   1.056   0.989   1.178   1.292   1.300   1.169   1.195   1.190   1.141   0.988   1.168   1.326   1.367   1.150   0.926   1.040   1.143   1.036   0.822   0.776   0.811   0.691   0.775   0.803   0.857   0.844   0.913   0.937   0.957   0.764   0.856   0.907   0.890   0.835   0.903   0.928   0.874   1.025   1.101   1.138   1.121   0.999   1.028   0.915   1.129   1.002   1.190   1.229   1.248   1.174   1.085   0.914   0.860   0.856   0.851   1.009   0.904   1.006   1.133   1.060   1.130
    85.00    0.873   0.853   0.821   0.968   0.862   0.949   0.962   0.846   0.896   0.799   0.818   0.848   1.060   1.121   1.046   1.069   1.224   1.149   1.209   1.178   1.158   1.289   1.210   1.148   1.122   1.100   1.073   1.085   0.993   1.068   1.001   1.200   1.054   0.814   0.922   0.874   0.968   0.971   1.012   0.940   0.950   1.200   1.236   1.235   1.471   1.456   1.223   1.164   0.982   1.061   1.199   1.291   1.169   1.109   0.981   1.052   1.043   0.980   1.022   0.959   0.890   0.958   0.923   0.833   0.779   0.941   1.016   0.992   0.938   0.783   0.865   0.848   0.869   0.810   0.793   0.878   0.912   1.050   1.151   1.052   1.086   1.140   0.992   1.138   1.061   1.170   1.132   1.044   1.046   1.175   1.078   1.051   0.917   0.926   0.844   0.962   1.016   1.042   1.129   1.195   1.096
    75.00    0.882   0.850   0.767   0.868   0.782   0.827   0.844   0.673   0.684   0.807   0.761   0.942   0.940   0.952   1.050   0.973   1.209   1.218   1.298   1.090   1.252   1.141   1.218   1.267   1.295   1.077   1.013   1.179   1.023   0.914   1.087   1.112   1.068   0.966   0.885   1.000   1.008   0.817   0.893   0.763   1.059   1.056   1.171   1.220   1.350   1.486   1.463   1.115   1.151   1.241   1.292   1.230   1.204   0.922   0.884   1.027   1.053   1.041   1.184   1.084   1.014   0.861   0.945   0.943   0.987   0.928   1.003   0.988   0.878   0.783   0.813   0.887   0.975   0.738   0.778   0.730   0.884   0.910   1.046   1.090   1.072   0.977   1.064   1.225   1.143   1.067   1.007   1.089   1.063   1.145   1.255   1.285   0.990   1.083   1.058   0.946   0.923   1.132   1.086   1.083   1.140
    65.00    0.752   0.926   0.875   0.926   0.768   0.836   0.801   0.774   0.849   0.826   0.759   0.998   1.015   0.961   1.096   1.107   1.071   1.409   1.270   1.219   1.278   1.225   1.111   1.140   1.218   1.061   1.157   1.375   1.242   1.102   1.159   1.150   1.069   1.123   1.094   1.021   0.964   0.907   0.980   1.032   1.062   1.138   1.195   1.067   1.277   1.398   1.231   1.297   1.206   1.333   1.523   1.218   1.098   0.917   0.982   1.024   1.009   1.077   1.004   1.087   0.907   0.957   0.971   1.000   1.129   1.035   1.006   0.913   0.955   0.854   0.983   0.899   0.799   0.700   0.672   0.800   0.803   0.739   1.044   1.160   1.048   1.140   1.088   1.318   1.221   1.302   1.238   1.148   1.265   1.271   1.346   1.407   1.268   1.063   1.054   1.042   1.065   1.116   1.041   0.922   0.938
    55.00    0.870   0.818   0.817   0.776   0.796   0.814   0.800   0.803   0.954   0.856   0.917   0.987   1.251   1.100   1.026   1.169   1.267   1.398   1.242   1.155   1.105   1.065   1.126   0.997   1.011   1.087   1.208   1.365   1.395   1.237   0.999   1.036   0.952   1.028   1.026   0.888   0.824   0.917   0.801   0.969   1.041   1.104   1.017   1.064   1.137   1.337   1.165   1.313   1.366   1.521   1.616   1.393   1.140   1.068   0.931   1.068   1.076   0.986   0.939   1.004   0.941   0.856   0.919   0.975   0.961   1.017   0.973   0.900   0.908   0.903   0.962   0.872   0.843   0.715   0.715   0.850   0.975   0.957   1.097   1.085   1.247   1.084   1.167   1.288   1.222   1.268   1.169   1.253   1.244   1.290   1.491   1.517   1.322   1.215   1.133   1.176   1.000   0.952   0.989   1.045   1.114
    45.00    0.911   0.858   0.812   0.942   0.836   0.758   0.833   0.843   0.915   0.950   1.048   1.128   1.206   1.010   1.019   1.105   1.198   1.327   1.086   1.230   1.128   0.991   0.850   0.995   0.999   1.014   1.121   1.250   1.419   1.250   1.120   0.923   0.951   0.776   0.914   0.967   0.967   0.828   0.835   0.922   0.943   1.177   1.111   1.130   1.081   1.322   1.346   1.371   1.493   1.639   1.513   1.352   1.039   1.147   1.050   1.036   0.985   1.007   0.962   1.043   0.917   1.007   0.986   0.987   0.935   1.085   1.001   0.975   0.877   0.825   0.962   0.950   0.810   0.856   0.875   0.761   0.890   0.958   1.063   1.247   1.260   1.197   1.102   1.208   1.258   0.989   1.100   1.228   1.149   1.199   1.264   1.392   1.183   1.328   1.186   1.250   1.044   1.020   1.007   1.019   0.982
    35.00    1.059   0.897   0.962   1.127   0.979   0.689   0.777   0.870   0.983   0.937   1.066   1.008   1.146   1.004   1.191   1.032   1.016   1.189   1.185   1.113   1.178   0.962   0.970   0.840   0.971   0.994   0.936   1.219   1.340   1.311   1.368   1.148   0.941   0.795   0.883   0.758   0.945   0.837   0.908   1.054   0.993   1.175   1.272   1.325   1.275   1.432   1.545   1.430   1.355   1.406   1.487   1.410   1.196   1.140   1.056   0.900   0.933   1.098   1.144   0.947   1.090   1.050   0.916   0.869   0.894   1.035   1.142   1.197   1.021   1.033   0.984   0.937   0.781   0.774   0.705   0.757   0.823   0.960   0.982   1.195   1.134   1.217   1.220   1.278   1.258   1.131   0.864   1.000   1.023   1.131   1.203   1.232   1.344   1.223   1.253   1.125   0.980   0.905   1.053   1.133   0.899
    25.00    1.020   0.845   0.857   1.007   1.036   0.842   0.807   0.932   0.955   0.919   0.981   1.007   1.115   1.176   1.102   0.997   1.073   0.998   1.089   0.949   1.101   0.972   1.052   1.031   0.981   0.994   1.007   1.130   1.294   1.213   1.216   1.183   0.988   0.827   0.927   0.747   0.818   0.785   1.016   1.069   1.180   1.264   1.303   1.260   1.238   1.281   1.442   1.384   1.417   1.210   1.382   1.391   1.262   1.093   0.921   0.926   0.815   1.025   1.209   1.025   1.073   1.074   1.053   1.129   0.945   1.054   1.278   1.239   0.942   0.959   1.018   0.887   1.002   0.805   0.730   0.692   0.778   0.835   0.951   1.031   1.065   1.075   1.276   1.246   1.127   0.980   1.101   1.075   1.233   1.075   1.054   1.004   1.187   1.092   1.160   1.110   1.129   1.033   1.089   1.181   1.019
    15.00    1.003   0.736   0.893   0.956   0.819   0.868   0.879   0.940   1.092   1.079   0.971   1.063   1.179   1.260   1.195   1.222   1.027   0.990   1.075   1.006   0.957   0.988   0.993   1.093   0.991   1.136   0.968   1.081   1.208   1.194   1.184   1.158   0.973   0.855   0.768   0.869   0.789   0.789   0.917   1.062   1.155   1.068   1.165   1.283   1.089   1.198   1.230   1.234   1.239   1.190   1.105   1.103   1.169   0.999   0.860   1.093   0.878   0.900   1.107   1.028   1.041   1.133   1.019   1.069   0.997   1.039   1.191   1.245   1.062   0.869   0.930   0.989   1.013   0.909   0.803   0.764   0.738   0.808   0.838   0.882   1.123   1.254   1.282   1.141   1.058   1.051   1.150   1.177   1.064   1.162   1.112   0.957   1.083   1.022   1.069   1.089   1.202   1.173   1.174   1.059   0.931
     5.00    1.016   0.862   0.830   0.874   0.913   0.961   0.957   0.933   0.978   1.100   0.985   1.061   1.198   1.190   1.074   1.045   1.062   0.998   0.831   0.970   1.032   1.181   1.113   1.082   1.129   1.280   1.179   0.992   0.954   1.052   1.087   0.913   0.997   0.837   0.988   0.960   0.944   0.872   0.954   0.975   1.086   1.246   1.154   1.284   1.311   1.118   1.027   1.039   1.056   1.180   0.938   1.084   1.182   1.039   0.941   0.942   1.032   1.107   1.208   1.020   1.009   0.901   1.059   1.043   1.241   1.091   1.091   1.063   1.031   1.094   1.096   1.016   0.956   0.957   0.772   0.806   0.830   0.757   0.913   1.083   1.091   1.101   1.175   1.086   1.064   1.089   1.121   1.100   1.095   1.003   1.094   0.974   0.914   1.042   0.965   1.155   1.120   0.939   0.936   1.068   0.888

   Height   Standard deviation at grid points for the v component:
   345.00    0.835   0.771   0.747   0.702   0.675   0.672   0.645   0.663   0.651   0.617   0.681   0.618   0.606   0.618   0.650   0.720   0.741   0.639   0.677   0.660   0.576   0.567   0.614   0.589   0.634   0.724   0.736   0.637   0.615   0.678   0.640   0.616   0.634   0.639   0.589   0.726   0.653   0.645   0.668   0.606   0.609   0.613   0.590   0.648   0.604   0.697   0.625   0.675   0.674   0.678   0.715   0.734   0.665   0.702   0.776   0.779   0.693   0.732   0.734   0.761   0.771   0.753   0.669   0.649   0.622   0.589   0.654   0.627   0.613   0.607   0.626   0.679   0.680   0.724   0.702   0.730   0.714   0.782   0.786   0.835   0.881   0.833   0.808   0.850   0.744   0.708   0.700   0.702   0.604   0.622   0.616   0.581   0.691   0.723   0.664   0.583   0.604   0.638   0.655   0.623   0.619
   335.00    0.785   0.719   0.748   0.753   0.727   0.630   0.665   0.668   0.663   0.659   0.612   0.620   0.577   0.598   0.655   0.733   0.748   0.694   0.615   0.669   0.667   0.633   0.655   0.657   0.662   0.642   0.640   0.670   0.706   0.651   0.629   0.693   0.672   0.665   0.754   0.756   0.682   0.670   0.648   0.640   0.634   0.653   0.653   0.642   0.698   0.682   0.675   0.617   0.636   0.684   0.570   0.648   0.660   0.713   0.789   0.773   0.831   0.683   0.724   0.695   0.673   0.735   0.639   0.666   0.637   0.596   0.665   0.648   0.617   0.573   0.561   0.623   0.651   0.740   0.703   0.693   0.740   0.800   0.697   0.799   0.822   0.870   0.863   0.815   0.795   0.677   0.717   0.692   0.673   0.678   0.658   0.662   0.663   0.572   0.638   0.567   0.556   0.580   0.622   0.578   0.599
   325.00    0.656   0.782   0.861   0.815   0.740   0.734   0.717   0.694   0.676   0.658   0.697   0.706   0.713   0.696   0.669   0.643   0.676   0.670   0.598   0.592   0.657   0.667   0.639   0.604   0.612   0.571   0.608   0.627   0.650   0.589   0.695   0.704   0.765   0.720   0.720   0.686   0.726   0.717   0.662   0.730   0.667   0.614   0.576   0.659   0.667   0.640   0.673   0.650   0.787   0.763   0.745   0.716   0.683   0.691   0.711   0.767   0.840   0.763   0.770   0.743   0.686   0.664   0.696   0.721   0.709   0.681   0.678   0.670   0.682   0.640   0.666   0.697   0.660   0.712   0.737   0.647   0.726   0.742   0.692   0.743   0.795   0.807   0.775   0.778   0.739   0.701   0.676   0.569   0.654   0.690   0.585   0.640   0.584   0.642   0.610   0.581   0.556   0.664   0.712   0.609   0.565
   315.00    0.747   0.682   0.799   0.734   0.823   0.800   0.789   0.632   0.646   0.702   0.621   0.701   0.694   0.742   0.666   0.693   0.713   0.678   0.660   0.670   0.613   0.639   0.574   0.543   0.599   0.585   0.565   0.686   0.737   0.700   0.671   0.728   0.752   0.755   0.724   0.676   0.736   0.725   0.807   0.667   0.662   0.614   0.664   0.621   0.589   0.663   0.590   0.708   0.796   0.836   0.707   0.706   0.696   0.697   0.675   0.693   0.670   0.722   0.802   0.754   0.722   0.718   0.719   0.729   0.766   0.695   0.622   0.634   0.683   0.637   0.629   0.675   0.699   0.641   0.688   0.657   0.716   0.679   0.703   0.727   0.790   0.841   0.746   0.746   0.666   0.647   0.615   0.560   0.610   0.647   0.608   0.571   0.620   0.653   0.668   0.686   0.653   0.674   0.683   0.677   0.542
   305.00    0.867   0.842   0.824   0.834   0.787   0.833   0.763   0.713   0.716   0.757   0.719   0.733   0.739   0.734   0.757   0.764   0.744   0.682   0.594   0.612   0.643   0.699   0.626   0.590   0.537   0.596   0.643   0.689   0.712   0.722   0.841   0.894   0.790   0.794   0.747   0.747   0.778   0.749   0.715   0.758   0.583   0.647   0.638   0.564   0.570   0.643   0.670   0.663   0.711   0.772   0.780   0.734   0.678   0.654   0.664   0.624   0.704   0.706   0.745   0.694   0.776   0.693   0.770   0.716   0.670   0.666   0.625   0.690   0.657   0.675   0.681   0.689   0.637   0.707   0.777   0.790   0.654   0.638   0.702   0.736   0.764   0.811   0.720   0.713   0.692   0.647   0.589   0.594   0.660   0.602   0.635   0.677   0.699   0.663   0.705   0.666   0.658   0.651   0.637   0.622   0.567
   295.00    0.826   0.790   0.894   0.923   0.850   0.801   0.777   0.766   0.785   0.838   0.802   0.721   0.715   0.788   0.762   0.780   0.691   0.629   0.586   0.578   0.603   0.675   0.676   0.689   0.648   0.710   0.710   0.749   0.740   0.685   0.776   0.821   0.821   0.876   0.736   0.734   0.777   0.762   0.748   0.720   0.632   0.660   0.661   0.619   0.576   0.579   0.607   0.625   0.603   0.680   0.723   0.780   0.766   0.736   0.692   0.626   0.656   0.680   0.674   0.670   0.731   0.623   0.683   0.716   0.688   0.708   0.635   0.691   0.760   0.706   0.707   0.636   0.668   0.668   0.780   0.712   0.729   0.748   0.765   0.770   0.775   0.802   0.693   0.703   0.761   0.727   0.653   0.578   0.596   0.599   0.605   0.688   0.768   0.732   0.764   0.597   0.604   0.664   0.643   0.627   0.594
   285.00    0.815   0.741   0.858   0.885   0.900   0.838   0.810   0.773   0.846   0.789   0.734   0.685   0.759   0.835   0.769   0.682   0.657   0.665   0.583   0.555   0.636   0.665   0.684   0.744   0.667   0.688   0.795   0.862   0.726   0.748   0.780   0.940   0.850   0.823   0.765   0.674   0.791   0.799   0.779   0.725   0.675   0.672   0.669   0.709   0.611   0.536   0.539   0.586   0.585   0.598   0.648   0.709   0.756   0.749   0.770   0.647   0.647   0.607   0.623   0.701   0.727   0.665   0.746   0.646   0.685   0.652   0.652   0.682   0.690   0.738   0.671   0.691   0.683   0.754   0.805   0.719   0.779   0.737   0.835   0.877   0.745   0.757   0.773   0.758   0.750   0.720   0.707   0.620   0.631   0.631   0.632   0.611   0.745   0.728   0.723   0.633   0.640   0.649   0.683   0.631   0.671
   275.00    0.706   0.797   0.829   0.815   0.907   0.868   0.799   0.867   0.898   0.775   0.638   0.606   0.732   0.735   0.788   0.744   0.796   0.665   0.664   0.641   0.664   0.652   0.785   0.759   0.739   0.777   0.819   0.849   0.775   0.739   0.809   0.867   0.950   0.862   0.811   0.836   0.801   0.832   0.786   0.797   0.729   0.720   0.630   0.725   0.652   0.575   0.554   0.555   0.534   0.582   0.663   0.663   0.784   0.822   0.797   0.693   0.738   0.677   0.625   0.673   0.684   0.706   0.718   0.647   0.623   0.646   0.656   0.723   0.677   0.697   0.699   0.674   0.652   0.679   0.689   0.738   0.777   0.793   0.852   0.827   0.730   0.750   0.813   0.839   0.794   0.705   0.694   0.606   0.592   0.585   0.696   0.693   0.687   0.660   0.740   0.670   0.592   0.615   0.612   0.691   0.668
   265.00    0.740   0.828   0.811   0.810   0.933   0.899   0.844   0.895   0.901   0.865   0.824   0.719   0.769   0.762   0.827   0.809   0.796   0.731   0.686   0.731   0.777   0.807   0.811   0.845   0.937   0.914   0.886   0.872   0.863   0.740   0.781   0.776   0.811   0.872   0.846   0.706   0.797   0.753   0.743   0.775   0.784   0.853   0.811   0.700   0.763   0.662   0.572   0.532   0.496   0.532   0.591   0.690   0.785   0.821   0.837   0.728   0.639   0.705   0.725   0.676   0.707   0.748   0.650   0.637   0.569   0.625   0.725   0.662   0.704   0.704   0.725   0.609   0.625   0.668   0.685   0.719   0.764   0.793   0.695   0.655   0.644   0.696   0.723   0.726   0.691   0.693   0.619   0.600   0.649   0.575   0.626   0.683   0.716   0.655   0.714   0.605   0.572   0.565   0.585   0.609   0.660
   255.00    0.822   0.815   0.802   0.859   0.974   0.985   0.858   0.829   0.838   0.851   0.893   0.819   0.744   0.831   0.815   0.813   0.767   0.705   0.678   0.741   0.784   0.860   0.855   0.904   0.868   0.865   0.882   0.771   0.701   0.756   0.724   0.761   0.779   0.717   0.822   0.763   0.851   0.755   0.821   0.822   0.827   0.860   0.773   0.798   0.785   0.648   0.571   0.479   0.572   0.562   0.640   0.684   0.714   0.769   0.731   0.727   0.682   0.648   0.717   0.715   0.690   0.651   0.574   0.667   0.642   0.673   0.686   0.714   0.700   0.743   0.650   0.641   0.636   0.662   0.676   0.702   0.735   0.727   0.634   0.571   0.655   0.664   0.661   0.653   0.673   0.616   0.689   0.629   0.626   0.574   0.578   0.671   0.723   0.698   0.685   0.636   0.571   0.544   0.590   0.547   0.534
   245.00    0.803   0.807   0.778   0.828   1.013   0.897   0.949   0.875   0.891   0.916   0.813   0.780   0.779   0.741   0.845   0.747   0.656   0.674   0.763   0.681   0.820   0.834   0.807   0.891   0.972   0.816   0.835   0.822   0.714   0.792   0.764   0.715   0.777   0.799   0.800   0.744   0.767   0.777   0.806   0.763   0.758   0.835   0.751   0.725   0.739   0.729   0.645   0.606   0.627   0.620   0.608   0.678   0.711   0.648   0.611   0.639   0.601   0.644   0.646   0.664   0.643   0.604   0.622   0.633   0.659   0.698   0.708   0.728   0.665   0.699   0.653   0.647   0.595   0.546   0.618   0.601   0.631   0.733   0.702   0.676   0.672   0.719   0.750   0.619   0.707   0.739   0.677   0.653   0.726   0.623   0.661   0.666   0.603   0.663   0.687   0.622   0.578   0.637   0.526   0.504   0.512
   235.00    0.799   0.798   0.767   0.927   0.984   0.872   0.844   0.928   0.892   0.950   0.872   0.862   0.878   0.863   0.861   0.787   0.648   0.640   0.780   0.709   0.782   0.819   0.878   0.904   0.878   0.808   0.708   0.684   0.719   0.798   0.758   0.826   0.800   0.849   0.828   0.645   0.712   0.728   0.680   0.703   0.730   0.719   0.691   0.677   0.724   0.734   0.685   0.634   0.663   0.654   0.646   0.613   0.625   0.633   0.562   0.605   0.596   0.636   0.667   0.617   0.613   0.573   0.641   0.658   0.635   0.704   0.743   0.683   0.738   0.677   0.657   0.606   0.584   0.620   0.600   0.592   0.601   0.591   0.720   0.625   0.607   0.731   0.676   0.681   0.745   0.755   0.602   0.631   0.634   0.738   0.665   0.680   0.661   0.757   0.691   0.633   0.611   0.659   0.602   0.587   0.578
   225.00    0.725   0.742   0.770   0.890   0.818   0.941   0.931   0.922   0.938   0.882   0.958   0.837   0.861   0.851   0.815   0.843   0.719   0.757   0.851   0.883   0.816   0.782   0.822   0.777   0.821   0.810   0.774   0.720   0.606   0.673   0.733   0.820   0.807   0.851   0.778   0.753   0.660   0.659   0.684   0.623   0.698   0.631   0.652   0.666   0.752   0.699   0.714   0.601   0.561   0.627   0.585   0.586   0.614   0.622   0.600   0.619   0.571   0.583   0.613   0.622   0.663   0.704   0.611   0.623   0.605   0.678   0.618   0.673   0.690   0.667   0.652   0.671   0.677   0.618   0.631   0.600   0.649   0.645   0.671   0.704   0.744   0.859   0.821   0.754   0.773   0.790   0.711   0.703   0.745   0.775   0.613   0.710   0.742   0.721   0.634   0.712   0.713   0.701   0.677   0.635   0.629
   215.00    0.887   0.878   0.815   0.833   0.898   0.947   0.849   0.779   0.863   0.941   0.994   0.899   0.920   0.972   0.946   0.943   0.877   0.869   0.906   0.862   0.851   0.890   0.872   0.782   0.695   0.701   0.767   0.765   0.724   0.689   0.697   0.778   0.886   0.853   0.759   0.841   0.751   0.744   0.683   0.687   0.668   0.676   0.556   0.668   0.622   0.670   0.660   0.674   0.588   0.697   0.663   0.601   0.686   0.684   0.547   0.606   0.612   0.607   0.576   0.564   0.564   0.659   0.612   0.670   0.642   0.612   0.604   0.699   0.645   0.632   0.693   0.696   0.699   0.649   0.689   0.700   0.566   0.568   0.650   0.757   0.793   0.879   0.775   0.757   0.702   0.759   0.722   0.767   0.676   0.684   0.667   0.746   0.813   0.716   0.766   0.815   0.667   0.715   0.688   0.654   0.709
   205.00    0.915   0.925   0.886   0.898   0.939   0.798   0.768   0.772   0.742   0.882   1.027   0.972   0.895   0.932   0.903   0.911   0.818   0.814   0.868   0.767   0.792   0.851   0.806   0.852   0.729   0.748   0.853   0.783   0.793   0.840   0.722   0.719   0.746   0.904   0.837   0.839   0.788   0.835   0.778   0.736   0.667   0.655   0.629   0.670   0.648   0.614   0.595   0.626   0.561   0.596   0.654   0.676   0.732   0.785   0.659   0.669   0.628   0.614   0.614   0.577   0.637   0.572   0.659   0.686   0.695   0.609   0.645   0.619   0.719   0.637   0.621   0.603   0.667   0.599   0.678   0.708   0.678   0.715   0.759   0.699   0.811   0.926   0.798   0.846   0.840   0.785   0.689   0.734   0.721   0.745   0.699   0.781   0.824   0.780   0.819   0.750   0.757   0.706   0.675   0.731   0.707
   195.00    0.909   0.926   0.968   0.860   0.803   0.820   0.807   0.766   0.859   0.872   0.884   0.870   0.876   0.855   0.924   0.851   0.846   0.865   0.819   0.928   0.851   0.750   0.683   0.757   0.652   0.653   0.763   0.788   0.727   0.733   0.696   0.724   0.723   0.866   0.934   0.850   0.837   0.838   0.740   0.730   0.735   0.712   0.655   0.763   0.723   0.610   0.669   0.649   0.582   0.627   0.621   0.621   0.692   0.714   0.796   0.786   0.779   0.706   0.725   0.651   0.717   0.743   0.632   0.663   0.702   0.636   0.638   0.666   0.644   0.665   0.534   0.593   0.681   0.567   0.551   0.671   0.667   0.728   0.869   0.829   0.859   0.938   0.770   0.802   0.884   0.840   0.790   0.723   0.758   0.726   0.684   0.763   0.769   0.797   0.850   0.744   0.684   0.672   0.664   0.642   0.676
   185.00    0.865   0.784   0.892   0.866   0.805   0.738   0.792   0.807   0.904   0.906   0.814   0.772   0.797   0.746   0.894   0.805   0.796   0.793   0.811   0.814   0.746   0.714   0.784   0.769   0.650   0.656   0.709   0.763   0.718   0.810   0.656   0.681   0.738   0.765   0.845   0.837   0.816   0.862   0.723   0.723   0.692   0.711   0.666   0.690   0.797   0.683   0.676   0.672   0.642   0.615   0.779   0.610   0.670   0.698   0.721   0.876   0.725   0.742   0.739   0.741   0.739   0.756   0.701   0.616   0.716   0.701   0.704   0.656   0.652   0.688   0.607   0.601   0.624   0.712   0.622   0.664   0.642   0.698   0.771   0.832   0.905   0.882   0.848   0.867   0.784   0.845   0.880   0.823   0.784   0.743   0.702   0.700   0.807   0.853   0.769   0.741   0.727   0.653   0.654   0.699   0.602
   175.00    0.797   0.898   0.808   0.869   0.758   0.763   0.699   0.830   1.006   0.836   0.829   0.827   0.859   0.789   0.903   0.799   0.806   0.749   0.778   0.767   0.710   0.732   0.789   0.760   0.717   0.747   0.809   0.752   0.804   0.685   0.761   0.772   0.801   0.834   0.778   0.822   0.730   0.785   0.760   0.754   0.656   0.599   0.626   0.629   0.724   0.698   0.734   0.745   0.762   0.739   0.739   0.742   0.774   0.736   0.807   0.885   0.803   0.747   0.838   0.726   0.803   0.771   0.832   0.836   0.792   0.801   0.645   0.638   0.658   0.667   0.654   0.622   0.678   0.695   0.671   0.554   0.605   0.585   0.717   0.799   0.815   0.810   0.868   0.914   0.867   0.885   0.786   0.767   0.744   0.737   0.726   0.679   0.745   0.817   0.782   0.777   0.725   0.708   0.666   0.636   0.585
   165.00    0.840   0.835   0.859   0.803   0.804   0.787   0.741   0.871   0.941   0.930   0.817   0.746   0.799   0.756   0.894   0.849   0.816   0.787   0.704   0.697   0.624   0.656   0.713   0.698   0.746   0.786   0.746   0.711   0.737   0.760   0.761   0.776   0.839   0.867   0.790   0.825   0.812   0.870   0.748   0.742   0.720   0.686   0.615   0.660   0.724   0.743   0.810   0.821   0.841   0.649   0.622   0.680   0.789   0.889   0.929   0.860   0.801   0.812   0.925   0.906   0.864   0.944   0.949   0.886   0.884   0.825   0.666   0.612   0.625   0.612   0.620   0.611   0.707   0.725   0.616   0.608   0.590   0.588   0.639   0.702   0.748   0.860   0.876   0.847   0.841   0.839   0.733   0.719   0.765   0.745   0.696   0.622   0.732   0.789   0.752   0.807   0.668   0.703   0.635   0.665   0.673
   155.00    0.721   0.768   0.712   0.693   0.750   0.754   0.743   0.843   0.877   0.871   0.866   0.820   0.812   0.828   0.851   0.852   0.719   0.676   0.685   0.627   0.592   0.619   0.639   0.635   0.681   0.738   0.750   0.776   0.834   0.723   0.791   0.801   0.797   0.755   0.841   0.824   0.891   0.929   0.739   0.731   0.747   0.670   0.664   0.681   0.746   0.723   0.761   0.834   0.802   0.790   0.615   0.599   0.737   0.800   0.864   0.831   0.845   0.790   0.872   0.925   0.907   0.887   0.931   1.045   0.876   0.742   0.664   0.645   0.629   0.635   0.660   0.696   0.752   0.687   0.685   0.644   0.626   0.634   0.605   0.691   0.747   0.837   0.838   0.754   0.793   0.790   0.695   0.678   0.730   0.724   0.669   0.656   0.668   0.689   0.687   0.700   0.637   0.673   0.743   0.694   0.742
   145.00    0.668   0.657   0.759   0.707   0.702   0.708   0.719   0.870   0.899   0.865   0.833   0.814   0.848   0.818   0.862   0.752   0.677   0.690   0.714   0.625   0.593   0.548   0.643   0.596   0.694   0.740   0.717   0.742   0.752   0.785   0.835   0.795   0.744   0.729   0.849   0.818   0.881   0.843   0.801   0.783   0.781   0.690   0.692   0.714   0.776   0.828   0.809   0.752   0.801   0.799   0.700   0.693   0.733   0.809   0.839   0.857   0.751   0.769   0.790   0.938   1.022   0.997   0.985   1.028   0.971   0.788   0.677   0.594   0.597   0.624   0.658   0.703   0.774   0.722   0.644   0.634   0.635   0.673   0.746   0.725   0.783   0.770   0.754   0.711   0.732   0.707   0.690   0.723   0.754   0.723   0.666   0.559   0.593   0.665   0.794   0.690   0.701   0.649   0.692   0.664   0.655
   135.00    0.672   0.684   0.785   0.723   0.762   0.707   0.735   0.841   0.846   0.861   0.903   0.918   0.872   0.884   0.799   0.636   0.617   0.654   0.721   0.733   0.611   0.594   0.606   0.556   0.618   0.656   0.657   0.697   0.671   0.697   0.756   0.757   0.788   0.745   0.798   0.859   0.925   0.894   0.732   0.646   0.752   0.774   0.754   0.797   0.706   0.748   0.765   0.725   0.713   0.785   0.810   0.818   0.761   0.801   0.745   0.803   0.752   0.725   0.725   0.836   0.947   0.974   0.917   0.960   0.862   0.685   0.692   0.644   0.585   0.651   0.696   0.696   0.713   0.718   0.691   0.621   0.637   0.725   0.697   0.761   0.761   0.761   0.676   0.709   0.688   0.677   0.651   0.672   0.696   0.733   0.612   0.698   0.582   0.632   0.686   0.731   0.689   0.712   0.630   0.619   0.593
   125.00    0.668   0.626   0.779   0.783   0.724   0.724   0.736   0.768   0.728   0.866   0.973   0.951   0.805   0.810   0.778   0.721   0.567   0.571   0.679   0.654   0.640   0.664   0.609   0.592   0.599   0.631   0.730   0.768   0.684   0.775   0.762   0.768   0.782   0.814   0.770   0.822   0.861   0.834   0.868   0.703   0.680   0.772   0.741   0.742   0.726   0.690   0.742   0.748   0.749   0.723   0.754   0.718   0.666   0.712   0.790   0.717   0.775   0.772   0.773   0.792   0.857   0.909   0.897   0.809   0.811   0.649   0.688   0.683   0.620   0.610   0.744   0.738   0.692   0.639   0.560   0.643   0.634   0.667   0.704   0.718   0.654   0.659   0.716   0.583   0.705   0.664   0.628   0.603   0.701   0.759   0.678   0.717   0.604   0.645   0.738   0.702   0.660   0.696   0.665   0.582   0.700
   115.00    0.642   0.657   0.671   0.761   0.709   0.623   0.651   0.757   0.761   0.845   0.858   0.903   0.777   0.732   0.686   0.613   0.723   0.570   0.619   0.665   0.647   0.605   0.589   0.580   0.609   0.695   0.679   0.730   0.678   0.812   0.770   0.898   0.775   0.760   0.748   0.741   0.750   0.828   0.757   0.671   0.676   0.693   0.701   0.677   0.642   0.682   0.759   0.709   0.747   0.630   0.659   0.627   0.560   0.754   0.807   0.864   0.769   0.707   0.680   0.689   0.764   0.722   0.761   0.717   0.671   0.659   0.586   0.546   0.560   0.600   0.737   0.733   0.733   0.706   0.640   0.700   0.600   0.684   0.710   0.708   0.675   0.631   0.635   0.648   0.648   0.674   0.668   0.712   0.687   0.725   0.629   0.673   0.672   0.655   0.742   0.741   0.745   0.737   0.664   0.631   0.673
   105.00    0.598   0.612   0.612   0.732   0.588   0.629   0.646   0.766   0.855   0.765   0.804   0.721   0.762   0.689   0.729   0.700   0.700   0.627   0.612   0.651   0.659   0.578   0.604   0.574   0.621   0.639   0.652   0.588   0.596   0.676   0.819   0.833   0.842   0.804   0.780   0.803   0.750   0.812   0.793   0.671   0.682   0.633   0.661   0.696   0.684   0.637   0.766   0.691   0.718   0.761   0.656   0.697   0.623   0.718   0.723   0.767   0.773   0.748   0.785   0.774   0.726   0.618   0.646   0.625   0.616   0.639   0.674   0.605   0.623   0.668   0.700   0.695   0.757   0.856   0.794   0.795   0.745   0.671   0.734   0.638   0.701   0.606   0.630   0.636   0.673   0.673   0.653   0.680   0.677   0.695   0.666   0.666   0.628   0.691   0.736   0.674   0.768   0.713   0.692   0.587   0.647
    95.00    0.641   0.611   0.667   0.675   0.622   0.620   0.768   0.790   0.851   0.741   0.828   0.713   0.707   0.661   0.711   0.675   0.684   0.608   0.538   0.552   0.537   0.595   0.621   0.611   0.603   0.571   0.555   0.641   0.607   0.707   0.716   0.768   0.804   0.800   0.773   0.738   0.738   0.702   0.700   0.688   0.665   0.705   0.654   0.599   0.725   0.721   0.748   0.711   0.659   0.719   0.719   0.709   0.635   0.605   0.630   0.785   0.795   0.756   0.771   0.746   0.623   0.602   0.580   0.607   0.648   0.603   0.598   0.649   0.655   0.648   0.685   0.795   0.696   0.840   0.860   0.867   0.830   0.757   0.771   0.780   0.708   0.652   0.692   0.656   0.735   0.707   0.669   0.653   0.673   0.718   0.654   0.730   0.640   0.654   0.727   0.727   0.831   0.698   0.671   0.620   0.581
    85.00    0.625   0.677   0.706   0.645   0.779   0.642   0.726   0.735   0.800   0.847   0.885   0.722   0.787   0.654   0.683   0.688   0.663   0.637   0.644   0.584   0.590   0.596   0.591   0.612   0.591   0.594   0.613   0.581   0.670   0.678   0.697   0.718   0.735   0.744   0.729   0.727   0.741   0.708   0.674   0.711   0.585   0.626   0.645   0.682   0.683   0.710   0.636   0.622   0.755   0.726   0.723   0.783   0.687   0.670   0.705   0.670   0.714   0.700   0.693   0.721   0.591   0.537   0.586   0.593   0.542   0.590   0.545   0.562   0.611   0.638   0.744   0.717   0.776   0.840   0.834   0.772   0.771   0.731   0.794   0.769   0.729   0.634   0.698   0.664   0.662   0.671   0.745   0.713   0.667   0.721   0.735   0.763   0.744   0.632   0.655   0.741   0.810   0.724   0.692   0.648   0.735
    75.00    0.649   0.718   0.722   0.701   0.711   0.710   0.753   0.739   0.758   0.748   0.786   0.789   0.752   0.739   0.658   0.633   0.636   0.629   0.560   0.629   0.597   0.557   0.621   0.613   0.595   0.655   0.633   0.672   0.679   0.729   0.642   0.622   0.632   0.724   0.812   0.753   0.726   0.736   0.763   0.688   0.616   0.680   0.717   0.676   0.741   0.721   0.707   0.714   0.727   0.689   0.704   0.679   0.826   0.713   0.720   0.617   0.594   0.719   0.666   0.723   0.642   0.639   0.642   0.632   0.616   0.642   0.610   0.576   0.600   0.617   0.677   0.653   0.703   0.735   0.769   0.811   0.745   0.666   0.679   0.672   0.604   0.651   0.655   0.669   0.659   0.599   0.667   0.643   0.635   0.643   0.633   0.658   0.718   0.697   0.708   0.793   0.730   0.732   0.744   0.725   0.722
    65.00    0.620   0.656   0.707   0.737   0.778   0.698   0.764   0.711   0.692   0.655   0.726   0.714   0.743   0.688   0.618   0.676   0.597   0.615   0.685   0.734   0.696   0.667   0.651   0.570   0.594   0.622   0.569   0.529   0.549   0.635   0.620   0.663   0.668   0.698   0.735   0.746   0.707   0.709   0.717   0.728   0.799   0.798   0.748   0.675   0.775   0.787   0.804   0.846   0.743   0.769   0.669   0.654   0.736   0.810   0.699   0.602   0.553   0.658   0.651   0.677   0.599   0.699   0.679   0.627   0.632   0.597   0.689   0.659   0.639   0.650   0.631   0.664   0.730   0.695   0.698   0.775   0.726   0.700   0.580   0.652   0.678   0.690   0.576   0.664   0.643   0.639   0.645   0.646   0.634   0.632   0.585   0.584   0.691   0.704   0.808   0.856   0.781   0.791   0.671   0.675   0.657
    55.00    0.670   0.638   0.698   0.685   0.749   0.745   0.737   0.779   0.702   0.641   0.670   0.759   0.749   0.734   0.619   0.704   0.656   0.697   0.715   0.713   0.717   0.673   0.634   0.629   0.683   0.628   0.609   0.595   0.584   0.599   0.638   0.661   0.708   0.691   0.718   0.784   0.834   0.825   0.742   0.731   0.837   0.746   0.745   0.761   0.746   0.788   0.841   0.811   0.787   0.722   0.733   0.807   0.778   0.691   0.708   0.529   0.583   0.634   0.698   0.703   0.655   0.615   0.640   0.666   0.718   0.730   0.714   0.681   0.596   0.611   0.719   0.709   0.728   0.720   0.771   0.740   0.699   0.608   0.687   0.693   0.725   0.687   0.686   0.694   0.665   0.679   0.687   0.676   0.594   0.568   0.578   0.583   0.654   0.684   0.668   0.766   0.747   0.767   0.754   0.656   0.574
    45.00    0.688   0.689   0.655   0.735   0.782   0.683   0.595   0.649   0.666   0.667   0.684   0.742   0.770   0.784   0.750   0.752   0.747   0.666   0.721   0.708   0.611   0.601   0.591   0.610   0.611   0.622   0.630   0.629   0.673   0.604   0.744   0.749   0.757   0.703   0.711   0.739   0.771   0.766   0.703   0.782   0.868   0.750   0.812   0.799   0.845   0.735   0.744   0.799   0.823   0.733   0.768   0.728   0.737   0.753   0.709   0.576   0.619   0.648   0.685   0.655   0.673   0.690   0.631   0.675   0.719   0.739   0.747   0.630   0.628   0.639   0.674   0.680   0.692   0.717   0.787   0.756   0.688   0.666   0.681   0.726   0.706   0.684   0.624   0.644   0.603   0.615   0.581   0.683   0.624   0.539   0.622   0.645   0.633   0.717   0.668   0.724   0.718   0.730   0.689   0.656   0.621
    35.00    0.638   0.646   0.655   0.662   0.712   0.594   0.594   0.611   0.657   0.674   0.744   0.744   0.734   0.687   0.713   0.689   0.700   0.701   0.694   0.662   0.683   0.629   0.695   0.722   0.602   0.608   0.661   0.627   0.645   0.695   0.707   0.710   0.689   0.673   0.697   0.724   0.786   0.897   0.758   0.851   0.841   0.819   0.806   0.807   0.861   0.772   0.704   0.820   0.797   0.714   0.731   0.705   0.742   0.805   0.682   0.571   0.610   0.688   0.683   0.595   0.654   0.717   0.688   0.664   0.716   0.708   0.683   0.715   0.730   0.666   0.686   0.609   0.673   0.739   0.712   0.741   0.675   0.667   0.678   0.696   0.671   0.748   0.663   0.612   0.581   0.648   0.629   0.621   0.618   0.648   0.650   0.632   0.635   0.752   0.628   0.652   0.611   0.644   0.637   0.605   0.690
    25.00    0.704   0.755   0.769   0.714   0.631   0.602   0.582   0.600   0.634   0.660   0.680   0.749   0.716   0.673   0.666   0.606   0.676   0.659   0.711   0.625   0.657   0.669   0.673   0.669   0.607   0.588   0.638   0.672   0.618   0.594   0.701   0.658   0.709   0.740   0.670   0.862   0.900   0.834   0.862   0.848   0.817   0.886   0.719   0.722   0.739   0.797   0.724   0.776   0.872   0.810   0.684   0.757   0.684   0.744   0.649   0.639   0.633   0.618   0.719   0.698   0.661   0.705   0.609   0.642   0.639   0.623   0.631   0.690   0.631   0.593   0.617   0.694   0.680   0.626   0.661   0.761   0.705   0.819   0.746   0.688   0.706   0.761   0.711   0.652   0.577   0.661   0.594   0.596   0.573   0.623   0.725   0.643   0.722   0.743   0.709   0.628   0.622   0.612   0.626   0.589   0.626
    15.00    0.790   0.771   0.771   0.768   0.693   0.665   0.655   0.542   0.645   0.725   0.683   0.765   0.621   0.719   0.733   0.643   0.595   0.630   0.641   0.624   0.741   0.703   0.796   0.669   0.637   0.611   0.631   0.658   0.638   0.606   0.631   0.659   0.690   0.792   0.806   0.884   0.861   0.857   0.862   0.778   0.765   0.837   0.763   0.733   0.844   0.850   0.820   0.760   0.843   0.770   0.757   0.692   0.765   0.744   0.641   0.589   0.640   0.674   0.668   0.669   0.782   0.638   0.604   0.596   0.580   0.574   0.607   0.647   0.607   0.588   0.618   0.679   0.705   0.741   0.747   0.734   0.722   0.821   0.743   0.768   0.794   0.740   0.751   0.681   0.670   0.660   0.618   0.640   0.603   0.687   0.790   0.786   0.743   0.743   0.662   0.687   0.730   0.651   0.716   0.761   0.693
     5.00    0.721   0.837   0.731   0.759   0.657   0.629   0.666   0.644   0.655   0.757   0.679   0.615   0.657   0.716   0.710   0.668   0.641   0.701   0.664   0.728   0.722   0.736   0.706   0.762   0.697   0.614   0.605   0.657   0.719   0.696   0.696   0.690   0.628   0.725   0.779   0.742   0.801   0.798   0.845   0.829   0.799   0.879   0.770   0.782   0.804   0.852   0.787   0.824   0.836   0.798   0.776   0.729   0.621   0.652   0.625   0.612   0.632   0.672   0.669   0.683   0.653   0.692   0.665   0.628   0.570   0.597   0.640   0.605   0.634   0.651   0.663   0.652   0.769   0.715   0.648   0.697   0.657   0.721   0.741   0.679   0.671   0.687   0.738   0.715   0.663   0.649   0.686   0.684   0.621   0.700   0.688   0.758   0.721   0.700   0.617   0.669   0.712   0.706   0.710   0.757   0.633

   Height   Standard deviation at grid points for the w component:
   345.00    0.529   0.522   0.515   0.495   0.483   0.489   0.483   0.455   0.503   0.478   0.479   0.483   0.478   0.490   0.503   0.520   0.489   0.492   0.470   0.506   0.483   0.489   0.459   0.490   0.505   0.451   0.475   0.492   0.503   0.481   0.473   0.499   0.503   0.483   0.491   0.504   0.467   0.495   0.469   0.480   0.476   0.525   0.566   0.572   0.530   0.502   0.520   0.516   0.508   0.505   0.466   0.446   0.430   0.443   0.439   0.445   0.437   0.462   0.458   0.459   0.470   0.469   0.459   0.455   0.442   0.485   0.446   0.505   0.483   0.471   0.457   0.446   0.445   0.421   0.430   0.444   0.472   0.497   0.507   0.491   0.438   0.467   0.463   0.464   0.491   0.493   0.500   0.517   0.499   0.507   0.484   0.489   0.484   0.481   0.458   0.451   0.469   0.495   0.465   0.463   0.436
   335.00    0.506   0.519   0.523   0.524   0.476   0.462   0.454   0.437   0.482   0.466   0.460   0.450   0.466   0.483   0.509   0.486   0.491   0.476   0.439   0.452   0.485   0.472   0.462   0.455   0.457   0.465   0.484   0.471   0.497   0.469   0.456   0.453   0.488   0.458   0.474   0.451   0.475   0.492   0.497   0.500   0.481   0.467   0.510   0.570   0.523   0.492   0.518   0.510   0.476   0.478   0.427   0.408   0.437   0.473   0.481   0.484   0.461   0.433   0.458   0.468   0.494   0.504   0.461   0.434   0.428   0.434   0.482   0.490   0.477   0.508   0.496   0.437   0.447   0.448   0.432   0.445   0.470   0.508   0.521   0.505   0.492   0.467   0.450   0.463   0.493   0.490   0.507   0.496   0.518   0.499   0.473   0.481   0.469   0.460   0.467   0.491   0.506   0.508   0.480   0.467   0.473
   325.00    0.500   0.522   0.536   0.526   0.461   0.463   0.435   0.439   0.456   0.494   0.482   0.506   0.480   0.458   0.506   0.483   0.448   0.483   0.479   0.467   0.462   0.473   0.501   0.494   0.474   0.483   0.472   0.434   0.490   0.514   0.476   0.471   0.458   0.466   0.458   0.483   0.501   0.511   0.490   0.460   0.450   0.502   0.494   0.480   0.539   0.539   0.555   0.533   0.509   0.495   0.454   0.450   0.469   0.441   0.458   0.457   0.444   0.438   0.477   0.453   0.471   0.479   0.455   0.469   0.477   0.495   0.529   0.522   0.470   0.462   0.502   0.514   0.468   0.448   0.478   0.455   0.459   0.475   0.487   0.508   0.477   0.496   0.484   0.470   0.491   0.512   0.490   0.504   0.513   0.511   0.496   0.515   0.467   0.469   0.489   0.516   0.472   0.456   0.477   0.481   0.485
   315.00    0.511   0.497   0.514   0.475   0.470   0.457   0.444   0.430   0.468   0.489   0.485   0.467   0.478   0.473   0.461   0.445   0.486   0.467   0.502   0.521   0.504   0.516   0.500   0.494   0.444   0.457   0.473   0.402   0.466   0.475   0.469   0.468   0.455   0.469   0.482   0.515   0.517   0.489   0.498   0.465   0.473   0.510   0.507   0.503   0.491   0.546   0.540   0.525   0.478   0.473   0.478   0.457   0.497   0.456   0.465   0.458   0.429   0.475   0.456   0.464   0.483   0.487   0.460   0.467   0.512   0.510   0.535   0.527   0.490   0.478   0.471   0.507   0.459   0.490   0.512   0.471   0.470   0.454   0.456   0.473   0.494   0.531   0.517   0.463   0.495   0.562   0.514   0.484   0.495   0.484   0.443   0.478   0.467   0.471   0.478   0.508   0.465   0.461   0.468   0.499   0.463
   305.00    0.490   0.511   0.461   0.492   0.458   0.451   0.466   0.409   0.459   0.468   0.483   0.512   0.488   0.470   0.486   0.461   0.479   0.493   0.486   0.498   0.485   0.489   0.478   0.480   0.468   0.430   0.440   0.411   0.466   0.500   0.472   0.459   0.488   0.483   0.483   0.498   0.509   0.504   0.502   0.488   0.510   0.525   0.491   0.482   0.487   0.500   0.506   0.499   0.469   0.486   0.465   0.497   0.507   0.529   0.493   0.479   0.442   0.481   0.462   0.479   0.443   0.490   0.452   0.480   0.498   0.507   0.505   0.521   0.505   0.462   0.501   0.473   0.477   0.458   0.487   0.472   0.468   0.501   0.465   0.486   0.481   0.501   0.463   0.473   0.498   0.495   0.552   0.501   0.498   0.502   0.470   0.443   0.462   0.483   0.494   0.482   0.460   0.469   0.447   0.465   0.483
   295.00    0.508   0.491   0.490   0.517   0.469   0.431   0.453   0.441   0.446   0.453   0.483   0.497   0.460   0.490   0.445   0.457   0.465   0.455   0.485   0.467   0.464   0.483   0.494   0.441   0.459   0.465   0.469   0.456   0.489   0.486   0.485   0.486   0.474   0.481   0.495   0.482   0.463   0.505   0.522   0.465   0.494   0.488   0.502   0.483   0.471   0.482   0.460   0.496   0.464   0.467   0.490   0.483   0.514   0.521   0.489   0.462   0.470   0.492   0.453   0.485   0.473   0.448   0.457   0.490   0.516   0.493   0.496   0.491   0.494   0.496   0.499   0.473   0.451   0.477   0.476   0.515   0.530   0.484   0.493   0.492   0.466   0.473   0.497   0.502   0.500   0.521   0.494   0.493   0.506   0.476   0.459   0.474   0.485   0.493   0.502   0.484   0.482   0.429   0.436   0.460   0.478
   285.00    0.484   0.546   0.498   0.481   0.461   0.467   0.462   0.445   0.425   0.485   0.461   0.478   0.478   0.472   0.457   0.471   0.474   0.487   0.453   0.456   0.464   0.457   0.456   0.462   0.441   0.476   0.463   0.441   0.473   0.473   0.495   0.492   0.503   0.482   0.485   0.498   0.488   0.471   0.475   0.467   0.461   0.465   0.473   0.439   0.459   0.506   0.496   0.493   0.467   0.451   0.454   0.471   0.456   0.461   0.494   0.454   0.472   0.465   0.493   0.474   0.467   0.454   0.472   0.455   0.507   0.524   0.512   0.494   0.478   0.515   0.496   0.474   0.476   0.483   0.480   0.509   0.505   0.463   0.457   0.468   0.494   0.475   0.478   0.512   0.496   0.502   0.534   0.462   0.489   0.490   0.452   0.489   0.472   0.480   0.490   0.508   0.503   0.449   0.444   0.461   0.487
   275.00    0.498   0.498   0.464   0.482   0.472   0.449   0.433   0.454   0.461   0.468   0.483   0.492   0.492   0.483   0.480   0.451   0.475   0.466   0.458   0.432   0.465   0.475   0.464   0.466   0.437   0.436   0.474   0.487   0.494   0.507   0.499   0.517   0.519   0.507   0.506   0.487   0.527   0.509   0.480   0.513   0.432   0.467   0.463   0.448   0.458   0.473   0.459   0.480   0.482   0.519   0.496   0.488   0.478   0.507   0.488   0.468   0.454   0.440   0.440   0.464   0.474   0.497   0.472   0.474   0.474   0.470   0.501   0.517   0.489   0.490   0.485   0.475   0.482   0.483   0.488   0.513   0.463   0.483   0.488   0.483   0.444   0.502   0.464   0.494   0.520   0.505   0.504   0.489   0.478   0.508   0.516   0.489   0.458   0.467   0.485   0.492   0.504   0.480   0.483   0.464   0.466
   265.00    0.467   0.482   0.453   0.448   0.464   0.460   0.464   0.457   0.465   0.448   0.474   0.486   0.445   0.487   0.473   0.469   0.493   0.485   0.473   0.425   0.482   0.476   0.442   0.442   0.445   0.450   0.459   0.505   0.493   0.500   0.492   0.493   0.507   0.512   0.510   0.515   0.518   0.540   0.545   0.523   0.467   0.478   0.453   0.452   0.480   0.467   0.472   0.501   0.545   0.516   0.536   0.517   0.464   0.466   0.500   0.462   0.462   0.429   0.466   0.460   0.467   0.507   0.491   0.465   0.480   0.494   0.520   0.515   0.497   0.460   0.450   0.462   0.472   0.504   0.502   0.507   0.530   0.498   0.510   0.494   0.450   0.464   0.517   0.485   0.514   0.509   0.462   0.453   0.426   0.441   0.480   0.474   0.434   0.472   0.454   0.493   0.475   0.470   0.491   0.473   0.468
   255.00    0.451   0.438   0.469   0.449   0.487   0.503   0.488   0.476   0.487   0.477   0.524   0.470   0.480   0.480   0.495   0.498   0.481   0.482   0.456   0.455   0.482   0.468   0.445   0.469   0.436   0.489   0.474   0.477   0.494   0.503   0.475   0.466   0.482   0.489   0.476   0.496   0.496   0.490   0.535   0.471   0.469   0.509   0.490   0.468   0.514   0.482   0.435   0.482   0.533   0.543   0.511   0.519   0.507   0.450   0.451   0.471   0.481   0.490   0.474   0.473   0.455   0.490   0.515   0.490   0.509   0.535   0.496   0.505   0.466   0.456   0.474   0.459   0.450   0.482   0.526   0.526   0.494   0.495   0.466   0.481   0.471   0.478   0.493   0.473   0.502   0.510   0.465   0.431   0.453   0.470   0.469   0.471   0.492   0.492   0.496   0.510   0.497   0.478   0.495   0.492   0.509
   245.00    0.452   0.448   0.446   0.474   0.486   0.465   0.471   0.471   0.488   0.491   0.484   0.468   0.464   0.449   0.504   0.502   0.450   0.458   0.473   0.475   0.471   0.464   0.458   0.442   0.432   0.472   0.487   0.483   0.486   0.503   0.477   0.478   0.510   0.469   0.489   0.470   0.485   0.513   0.495   0.480   0.489   0.506   0.515   0.496   0.515   0.492   0.467   0.496   0.552   0.563   0.522   0.555   0.492   0.467   0.497   0.500   0.482   0.479   0.481   0.479   0.446   0.492   0.479   0.509   0.514   0.502   0.510   0.525   0.482   0.468   0.483   0.483   0.508   0.509   0.535   0.505   0.516   0.499   0.488   0.492   0.488   0.465   0.451   0.460   0.482   0.492   0.496   0.468   0.498   0.458   0.460   0.460   0.451   0.504   0.486   0.497   0.520   0.524   0.482   0.492   0.530
   235.00    0.461   0.477   0.455   0.479   0.456   0.456   0.460   0.434   0.443   0.471   0.464   0.461   0.455   0.473   0.463   0.483   0.488   0.446   0.463   0.467   0.481   0.462   0.456   0.463   0.483   0.481   0.489   0.446   0.461   0.489   0.464   0.470   0.494   0.475   0.458   0.488   0.508   0.461   0.491   0.469   0.504   0.487   0.474   0.501   0.530   0.515   0.519   0.528   0.527   0.532   0.495   0.523   0.481   0.470   0.513   0.517   0.493   0.478   0.478   0.458   0.476   0.469   0.466   0.458   0.477   0.476   0.483   0.492   0.516   0.493   0.473   0.477   0.482   0.468   0.493   0.511   0.478   0.479   0.479   0.472   0.464   0.447   0.441   0.463   0.484   0.481   0.509   0.494   0.502   0.489   0.462   0.448   0.467   0.493   0.475   0.482   0.541   0.541   0.530   0.511   0.572
   225.00    0.453   0.470   0.470   0.480   0.465   0.493   0.478   0.479   0.467   0.468   0.485   0.463   0.448   0.417   0.466   0.467   0.490   0.464   0.490   0.481   0.494   0.461   0.501   0.454   0.481   0.475   0.453   0.440   0.467   0.489   0.466   0.452   0.529   0.478   0.504   0.506   0.518   0.499   0.472   0.454   0.476   0.505   0.508   0.528   0.525   0.524   0.543   0.525   0.490   0.464   0.500   0.505   0.491   0.497   0.505   0.531   0.502   0.463   0.469   0.493   0.453   0.478   0.498   0.462   0.457   0.449   0.489   0.465   0.493   0.481   0.447   0.501   0.476   0.466   0.476   0.479   0.476   0.498   0.480   0.498   0.476   0.448   0.464   0.471   0.475   0.505   0.533   0.501   0.504   0.508   0.480   0.454   0.472   0.477   0.483   0.457   0.495   0.479   0.490   0.519   0.532
   215.00    0.461   0.461   0.440   0.465   0.477   0.485   0.493   0.497   0.453   0.462   0.464   0.463   0.467   0.484   0.461   0.480   0.494   0.464   0.463   0.459   0.496   0.497   0.471   0.505   0.546   0.459   0.469   0.484   0.495   0.498   0.461   0.477   0.510   0.516   0.494   0.492   0.507   0.535   0.499   0.464   0.492   0.507   0.523   0.501   0.518   0.509   0.513   0.505   0.466   0.470   0.525   0.517   0.504   0.463   0.488   0.515   0.511   0.510   0.485   0.512   0.486   0.484   0.475   0.476   0.478   0.503   0.466   0.445   0.450   0.464   0.478   0.493   0.504   0.513   0.467   0.491   0.466   0.480   0.465   0.498   0.449   0.490   0.480   0.490   0.495   0.507   0.492   0.496   0.497   0.513   0.468   0.489   0.471   0.478   0.487   0.458   0.481   0.492   0.500   0.542   0.498
   205.00    0.461   0.484   0.444   0.439   0.501   0.487   0.468   0.510   0.465   0.477   0.480   0.516   0.499   0.463   0.464   0.511   0.468   0.474   0.459   0.454   0.466   0.484   0.443   0.464   0.508   0.537   0.495   0.492   0.492   0.502   0.477   0.471   0.514   0.496   0.506   0.488   0.510   0.534   0.502   0.484   0.512   0.514   0.510   0.520   0.504   0.511   0.497   0.500   0.481   0.459   0.455   0.479   0.494   0.471   0.489   0.484   0.486   0.529   0.518   0.522   0.518   0.524   0.499   0.509   0.464   0.485   0.476   0.486   0.466   0.462   0.467   0.477   0.463   0.467   0.495   0.447   0.462   0.483   0.470   0.488   0.494   0.496   0.477   0.484   0.480   0.486   0.483   0.493   0.506   0.481   0.436   0.432   0.465   0.467   0.480   0.472   0.465   0.478   0.503   0.471   0.455
   195.00    0.499   0.521   0.462   0.445   0.475   0.474   0.463   0.502   0.483   0.454   0.478   0.495   0.460   0.494   0.479   0.481   0.459   0.478   0.453   0.442   0.446   0.432   0.450   0.462   0.484   0.490   0.512   0.500   0.452   0.492   0.524   0.518   0.515   0.488   0.496   0.496   0.510   0.513   0.522   0.473   0.509   0.519   0.509   0.501   0.542   0.505   0.528   0.508   0.477   0.478   0.490   0.472   0.483   0.472   0.489   0.486   0.516   0.526   0.521   0.539   0.518   0.495   0.495   0.494   0.465   0.487   0.479   0.478   0.476   0.473   0.410   0.447   0.479   0.466   0.481   0.468   0.488   0.464   0.496   0.497   0.512   0.488   0.486   0.502   0.496   0.522   0.473   0.485   0.472   0.511   0.461   0.455   0.463   0.448   0.474   0.447   0.478   0.484   0.483   0.489   0.480
   185.00    0.493   0.518   0.486   0.506   0.490   0.481   0.469   0.485   0.465   0.492   0.454   0.473   0.467   0.448   0.454   0.456   0.456   0.443   0.435   0.424   0.451   0.448   0.477   0.472   0.502   0.433   0.413   0.452   0.483   0.462   0.487   0.499   0.521   0.545   0.526   0.536   0.507   0.503   0.505   0.486   0.512   0.527   0.532   0.485   0.495   0.519   0.520   0.524   0.535   0.502   0.462   0.456   0.455   0.451   0.465   0.462   0.504   0.490   0.493   0.523   0.488   0.475   0.465   0.472   0.477   0.491   0.486   0.496   0.475   0.469   0.464   0.453   0.475   0.487   0.463   0.480   0.530   0.515   0.497   0.519   0.508   0.480   0.476   0.495   0.525   0.498   0.501   0.495   0.451   0.466   0.445   0.470   0.441   0.443   0.485   0.467   0.488   0.477   0.492   0.483   0.440
   175.00    0.493   0.480   0.467   0.458   0.462   0.483   0.496   0.460   0.473   0.493   0.486   0.459   0.442   0.443   0.441   0.469   0.401   0.447   0.407   0.411   0.411   0.451   0.470   0.461   0.487   0.472   0.445   0.478   0.477   0.477   0.521   0.529   0.554   0.605   0.554   0.510   0.496   0.471   0.493   0.493   0.478   0.505   0.488   0.497   0.498   0.496   0.520   0.491   0.472   0.509   0.462   0.471   0.477   0.463   0.466   0.451   0.467   0.465   0.467   0.503   0.498   0.497   0.477   0.486   0.500   0.504   0.479   0.478   0.443   0.471   0.464   0.451   0.490   0.532   0.503   0.515   0.517   0.512   0.502   0.517   0.521   0.493   0.518   0.528   0.513   0.484   0.461   0.491   0.474   0.489   0.442   0.440   0.479   0.439   0.457   0.487   0.489   0.469   0.459   0.501   0.490
   165.00    0.507   0.489   0.463   0.473   0.443   0.453   0.505   0.481   0.483   0.466   0.453   0.489   0.455   0.460   0.435   0.460   0.469   0.428   0.444   0.427   0.462   0.468   0.447   0.488   0.474   0.468   0.489   0.496   0.489   0.469   0.481   0.522   0.540   0.569   0.586   0.525   0.544   0.544   0.523   0.458   0.456   0.471   0.509   0.500   0.496   0.492   0.461   0.464   0.465   0.478   0.453   0.445   0.455   0.437   0.436   0.443   0.445   0.455   0.454   0.495   0.429   0.500   0.460   0.497   0.497   0.491   0.456   0.481   0.491   0.431   0.473   0.487   0.502   0.512   0.549   0.540   0.533   0.500   0.554   0.544   0.508   0.511   0.518   0.534   0.502   0.511   0.478   0.465   0.469   0.467   0.462   0.482   0.475   0.449   0.464   0.473   0.470   0.482   0.466   0.497   0.481
   155.00    0.488   0.458   0.462   0.425   0.448   0.437   0.476   0.479   0.480   0.461   0.438   0.450   0.450   0.501   0.475   0.460   0.472   0.456   0.497   0.453   0.447   0.492   0.470   0.463   0.466   0.474   0.491   0.524   0.504   0.489   0.454   0.500   0.510   0.549   0.565   0.550   0.523   0.513   0.495   0.482   0.490   0.497   0.488   0.524   0.513   0.509   0.510   0.486   0.485   0.448   0.450   0.458   0.455   0.478   0.453   0.476   0.468   0.430   0.466   0.494   0.501   0.521   0.478   0.494   0.469   0.462   0.461   0.468   0.448   0.494   0.474   0.490   0.483   0.494   0.510   0.533   0.517   0.495   0.553   0.541   0.534   0.525   0.493   0.490   0.498   0.503   0.485   0.491   0.523   0.487   0.484   0.516   0.498   0.495   0.479   0.471   0.478   0.464   0.443   0.483   0.506
   145.00    0.486   0.502   0.527   0.470   0.480   0.447   0.464   0.447   0.447   0.467   0.464   0.469   0.503   0.528   0.504   0.503   0.453   0.492   0.482   0.460   0.495   0.500   0.502   0.476   0.475   0.482   0.513   0.495   0.491   0.476   0.493   0.484   0.506   0.534   0.563   0.562   0.535   0.531   0.500   0.471   0.477   0.485   0.480   0.498   0.535   0.543   0.495   0.488   0.493   0.453   0.453   0.440   0.454   0.462   0.500   0.520   0.479   0.472   0.464   0.478   0.499   0.464   0.476   0.496   0.480   0.474   0.515   0.492   0.433   0.478   0.468   0.471   0.469   0.490   0.486   0.551   0.552   0.570   0.550   0.553   0.562   0.535   0.489   0.531   0.516   0.533   0.553   0.512   0.519   0.543   0.521   0.509   0.497   0.453   0.465   0.456   0.455   0.461   0.443   0.463   0.517
   135.00    0.456   0.509   0.539   0.503   0.512   0.478   0.481   0.481   0.473   0.468   0.489   0.487   0.496   0.510   0.471   0.490   0.454   0.491   0.480   0.430   0.464   0.460   0.493   0.470   0.488   0.539   0.511   0.541   0.471   0.485   0.492   0.492   0.487   0.552   0.553   0.522   0.518   0.495   0.486   0.519   0.497   0.490   0.502   0.533   0.543   0.542   0.502   0.489   0.503   0.485   0.449   0.487   0.485   0.491   0.513   0.519   0.529   0.520   0.495   0.495   0.502   0.505   0.457   0.452   0.474   0.487   0.465   0.488   0.448   0.469   0.493   0.471   0.435   0.490   0.519   0.562   0.548   0.542   0.540   0.513   0.487   0.460   0.487   0.523   0.526   0.509   0.507   0.519   0.542   0.533   0.478   0.511   0.469   0.460   0.468   0.431   0.449   0.474   0.484   0.484   0.479
   125.00    0.510   0.530   0.550   0.518   0.501   0.477   0.506   0.473   0.469   0.478   0.484   0.518   0.508   0.508   0.492   0.472   0.473   0.483   0.496   0.457   0.454   0.480   0.505   0.504   0.462   0.481   0.494   0.488   0.463   0.512   0.520   0.501   0.516   0.539   0.544   0.512   0.523   0.481   0.514   0.504   0.539   0.526   0.518   0.540   0.533   0.510   0.456   0.484   0.511   0.498   0.496   0.486   0.461   0.494   0.473   0.512   0.506   0.493   0.457   0.494   0.499   0.485   0.511   0.498   0.488   0.464   0.468   0.466   0.477   0.487   0.478   0.486   0.481   0.447   0.481   0.536   0.572   0.532   0.535   0.557   0.504   0.497   0.497   0.528   0.513   0.507   0.502   0.511   0.519   0.484   0.489   0.485   0.513   0.470   0.460   0.449   0.466   0.470   0.463   0.448   0.440
   115.00    0.504   0.519   0.514   0.528   0.505   0.533   0.487   0.470   0.440   0.445   0.485   0.518   0.483   0.496   0.462   0.481   0.475   0.449   0.503   0.480   0.456   0.478   0.491   0.505   0.451   0.493   0.481   0.469   0.450   0.479   0.475   0.510   0.502   0.548   0.569   0.539   0.512   0.506   0.501   0.505   0.532   0.503   0.516   0.520   0.528   0.504   0.521   0.483   0.471   0.487   0.483   0.476   0.461   0.482   0.497   0.519   0.509   0.506   0.465   0.473   0.506   0.472   0.497   0.475   0.500   0.498   0.465   0.502   0.473   0.504   0.504   0.490   0.478   0.509   0.498   0.502   0.526   0.516   0.534   0.570   0.529   0.534   0.488   0.499   0.481   0.510   0.504   0.523   0.498   0.481   0.502   0.475   0.517   0.485   0.453   0.472   0.476   0.480   0.428   0.462   0.499
   105.00    0.494   0.518   0.500   0.539   0.531   0.517   0.494   0.458   0.466   0.457   0.472   0.500   0.492   0.466   0.487   0.491   0.462   0.461   0.475   0.515   0.458   0.466   0.484   0.491   0.491   0.520   0.513   0.469   0.462   0.481   0.487   0.457   0.508   0.508   0.531   0.546   0.518   0.481   0.509   0.511   0.505   0.530   0.539   0.516   0.521   0.511   0.519   0.463   0.470   0.481   0.494   0.471   0.463   0.462   0.466   0.500   0.492   0.487   0.498   0.501   0.490   0.482   0.524   0.497   0.527   0.499   0.503   0.478   0.488   0.467   0.505   0.518   0.491   0.492   0.513   0.473   0.499   0.492   0.518   0.486   0.487   0.514   0.510   0.484   0.517   0.531   0.505   0.485   0.496   0.507   0.480   0.490   0.468   0.458   0.495   0.476   0.472   0.441   0.465   0.495   0.472
    95.00    0.506   0.505   0.491   0.492   0.507   0.492   0.475   0.469   0.483   0.475   0.469   0.454   0.475   0.454   0.473   0.478   0.460   0.480   0.488   0.472   0.503   0.503   0.484   0.458   0.490   0.484   0.521   0.466   0.461   0.443   0.468   0.478   0.476   0.511   0.532   0.541   0.501   0.549   0.515   0.493   0.499   0.505   0.537   0.531   0.511   0.500   0.471   0.491   0.485   0.475   0.455   0.483   0.513   0.483   0.475   0.508   0.515   0.488   0.512   0.486   0.492   0.497   0.518   0.532   0.508   0.516   0.489   0.515   0.482   0.478   0.493   0.499   0.497   0.508   0.464   0.476   0.502   0.448   0.451   0.444   0.480   0.532   0.474   0.471   0.486   0.496   0.517   0.458   0.487   0.491   0.476   0.453   0.464   0.423   0.475   0.468   0.477   0.471   0.457   0.457   0.481
    85.00    0.478   0.481   0.490   0.455   0.475   0.439   0.473   0.465   0.470   0.470   0.481   0.447   0.438   0.449   0.469   0.479   0.462   0.491   0.509   0.457   0.472   0.460   0.470   0.459   0.457   0.503   0.539   0.491   0.494   0.468   0.453   0.454   0.442   0.495   0.524   0.510   0.530   0.544   0.477   0.479   0.447   0.470   0.476   0.508   0.517   0.501   0.486   0.498   0.497   0.500   0.454   0.485   0.519   0.482   0.466   0.458   0.519   0.530   0.511   0.470   0.497   0.485   0.480   0.538   0.534   0.472   0.465   0.484   0.458   0.471   0.461   0.470   0.451   0.479   0.450   0.463   0.438   0.434   0.451   0.460   0.502   0.494   0.481   0.495   0.484   0.466   0.470   0.464   0.502   0.535   0.496   0.453   0.486   0.518   0.476   0.481   0.485   0.450   0.467   0.447   0.457
    75.00    0.494   0.493   0.497   0.482   0.477   0.447   0.460   0.492   0.492   0.496   0.517   0.498   0.461   0.458   0.520   0.432   0.448   0.451   0.455   0.458   0.429   0.464   0.433   0.438   0.458   0.496   0.544   0.550   0.523   0.466   0.469   0.477   0.457   0.529   0.572   0.528   0.536   0.517   0.489   0.515   0.480   0.460   0.515   0.499   0.488   0.496   0.513   0.460   0.481   0.466   0.466   0.481   0.471   0.481   0.456   0.458   0.504   0.527   0.487   0.459   0.464   0.467   0.516   0.549   0.497   0.477   0.483   0.469   0.495   0.486   0.475   0.475   0.506   0.492   0.469   0.464   0.474   0.481   0.462   0.484   0.515   0.526   0.494   0.520   0.430   0.461   0.451   0.489   0.523   0.522   0.525   0.481   0.481   0.533   0.472   0.487   0.482   0.450   0.460   0.487   0.499
    65.00    0.488   0.509   0.517   0.501   0.460   0.440   0.474   0.489   0.460   0.484   0.497   0.463   0.489   0.497   0.505   0.490   0.490   0.445   0.437   0.456   0.448   0.476   0.478   0.453   0.487   0.484   0.514   0.520   0.477   0.438   0.438   0.465   0.455   0.493   0.502   0.554   0.530   0.509   0.517   0.499   0.472   0.503   0.517   0.499   0.484   0.478   0.470   0.487   0.457   0.466   0.467   0.478   0.437   0.464   0.438   0.434   0.462   0.481   0.477   0.498   0.471   0.479   0.481   0.475   0.503   0.455   0.468   0.457   0.455   0.442   0.468   0.463   0.468   0.466   0.463   0.444   0.476   0.515   0.501   0.469   0.495   0.530   0.521   0.497   0.483   0.498   0.491   0.457   0.489   0.541   0.554   0.537   0.523   0.488   0.510   0.498   0.488   0.500   0.464   0.445   0.489
    55.00    0.457   0.492   0.460   0.445   0.452   0.471   0.473   0.492   0.480   0.487   0.424   0.453   0.502   0.501   0.494   0.483   0.495   0.478   0.455   0.476   0.478   0.468   0.455   0.475   0.470   0.472   0.444   0.489   0.485   0.450   0.498   0.461   0.475   0.495   0.513   0.510   0.506   0.546   0.527   0.505   0.521   0.501   0.490   0.486   0.478   0.474   0.470   0.467   0.445   0.501   0.485   0.469   0.441   0.462   0.434   0.446   0.431   0.454   0.463   0.504   0.483   0.482   0.505   0.511   0.496   0.535   0.508   0.492   0.447   0.442   0.450   0.473   0.435   0.452   0.456   0.464   0.456   0.518   0.509   0.494   0.512   0.509   0.524   0.496   0.488   0.484   0.486   0.495   0.522   0.532   0.527   0.498   0.507   0.518   0.497   0.460   0.451   0.471   0.461   0.499   0.510
    45.00    0.484   0.487   0.477   0.469   0.490   0.467   0.480   0.476   0.493   0.500   0.493   0.483   0.472   0.487   0.480   0.482   0.523   0.495   0.483   0.500   0.466   0.491   0.460   0.432   0.489   0.483   0.435   0.459   0.480   0.458   0.499   0.439   0.455   0.488   0.501   0.481   0.520   0.510   0.499   0.505   0.523   0.478   0.486   0.469   0.481   0.498   0.499   0.484   0.463   0.461   0.499   0.455   0.476   0.471   0.458   0.474   0.465   0.467   0.457   0.467   0.474   0.517   0.487   0.514   0.505   0.508   0.491   0.472   0.452   0.475   0.480   0.463   0.438   0.462   0.489   0.462   0.456   0.487   0.473   0.478   0.487   0.508   0.519   0.467   0.484   0.471   0.490   0.511   0.500   0.524   0.518   0.527   0.522   0.474   0.474   0.465   0.452   0.451   0.483   0.478   0.464
    35.00    0.471   0.453   0.464   0.450   0.496   0.458   0.475   0.430   0.475   0.514   0.495   0.434   0.464   0.467   0.496   0.489   0.497   0.512   0.500   0.512   0.471   0.510   0.486   0.425   0.475   0.454   0.495   0.510   0.494   0.475   0.450   0.451   0.486   0.503   0.498   0.477   0.483   0.508   0.465   0.488   0.539   0.502   0.501   0.478   0.490   0.470   0.447   0.472   0.468   0.431   0.464   0.452   0.465   0.461   0.467   0.495   0.507   0.474   0.423   0.453   0.471   0.454   0.478   0.498   0.513   0.491   0.463   0.466   0.490   0.514   0.479   0.457   0.454   0.453   0.467   0.445   0.453   0.469   0.480   0.487   0.465   0.472   0.503   0.480   0.451   0.477   0.486   0.498   0.512   0.496   0.524   0.518   0.494   0.467   0.478   0.476   0.470   0.465   0.474   0.462   0.469
    25.00    0.458   0.459   0.477   0.471   0.437   0.471   0.454   0.460   0.459   0.479   0.487   0.468   0.479   0.451   0.472   0.468   0.486   0.475   0.497   0.543   0.500   0.521   0.473   0.443   0.463   0.499   0.485   0.501   0.480   0.443   0.439   0.474   0.490   0.454   0.502   0.490   0.498   0.462   0.493   0.511   0.528   0.518   0.490   0.466   0.488   0.486   0.509   0.511   0.496   0.500   0.504   0.488   0.432   0.454   0.493   0.487   0.492   0.494   0.464   0.479   0.496   0.488   0.444   0.494   0.487   0.449   0.444   0.458   0.484   0.532   0.501   0.461   0.436   0.466   0.479   0.448   0.458   0.464   0.500   0.486   0.458   0.479   0.500   0.477   0.478   0.470   0.455   0.490   0.476   0.498   0.480   0.490   0.483   0.453   0.500   0.489   0.492   0.472   0.462   0.457   0.467
    15.00    0.442   0.442   0.504   0.474   0.472   0.494   0.490   0.466   0.482   0.476   0.480   0.500   0.452   0.458   0.485   0.513   0.467   0.518   0.470   0.505   0.521   0.497   0.461   0.465   0.449   0.455   0.468   0.484   0.480   0.480   0.468   0.457   0.504   0.494   0.492   0.478   0.509   0.494   0.496   0.495   0.492   0.514   0.492   0.466   0.483   0.490   0.507   0.516   0.515   0.472   0.489   0.468   0.425   0.447   0.447   0.459   0.479   0.480   0.485   0.458   0.466   0.471   0.447   0.462   0.470   0.451   0.434   0.429   0.475   0.519   0.514   0.490   0.448   0.473   0.432   0.454   0.475   0.477   0.434   0.474   0.491   0.482   0.502   0.515   0.508   0.467   0.436   0.447   0.471   0.497   0.490   0.529   0.527   0.507   0.501   0.514   0.522   0.474   0.451   0.470   0.467
     5.00    0.484   0.445   0.484   0.482   0.452   0.456   0.465   0.478   0.489   0.446   0.464   0.477   0.463   0.480   0.499   0.503   0.481   0.502   0.517   0.518   0.545   0.495   0.469   0.485   0.493   0.468   0.494   0.508   0.446   0.490   0.497   0.467   0.492   0.497   0.491   0.471   0.497   0.483   0.511   0.502   0.496   0.510   0.485   0.474   0.467   0.505   0.486   0.475   0.480   0.462   0.471   0.486   0.443   0.448   0.492   0.490   0.490   0.499   0.488   0.490   0.485   0.493   0.488   0.436   0.445   0.460   0.476   0.451   0.475   0.483   0.472   0.482   0.472   0.458   0.466   0.467   0.454   0.484   0.478   0.462   0.480   0.468   0.458   0.493   0.496   0.436   0.453   0.463   0.504   0.495   0.493   0.488   0.499   0.501   0.506   0.510   0.513   0.469   0.480   0.486   0.517

   Mean standard deviation across all grid points:
      u component:    1.080 m/s
      v component:    0.712 m/s
      w component:    0.484 m/s


U-component (X) statistics from the interpolated hub point:

   Mean =   9.2430 m/s
   TI   =  10.0000 %


Processing complete.  765.41 CPU seconds used.
