
 **************************************************************************************************
 OpenFAST

 Copyright (C) 2020 National Renewable Energy Laboratory
 Copyright (C) 2020 Envision Energy USA LTD

 This program is licensed under Apache License Version 2.0 and comes with ABSOLUTELY NO WARRANTY.
 See the "LICENSE" file distributed with this software for details.
 **************************************************************************************************

 OpenFAST-v2.4.0-50-g416ff436-dirty
 Compile Info:
  - Compiler: Intel(R) Fortran Intel(R) 64 Compiler for applications running on Intel(R) 64,
  Version 19.0.8.324 Build 20200220
  - Architecture: 64 bit
  - Precision: double
  - Date: Nov 06 2020
  - Time: 13:37:52
 Execution Info:
  - Date: 11/06/2020
  - Time: 13:55:06-0600

 OpenFAST input file heading:
     FAST Certification Test #03: AWT-27CR2 with many DOFs with free yaw and steady wind.

 Running ElastoDyn.
 Nodal outputs section of ElastoDyn input file not found or improperly formatted.
 Running AeroDyn.
 Nodal output section of AeroDyn input file not found or improperly formatted.
 Running InflowWind.
 Running ServoDyn.
  Time: 0 of 20 seconds.
 Warning: Turning off Unsteady Aerodynamics due to high angle of attack (66.465 deg). (node 1,
 blade 1)
 Warning: Turning off Unsteady Aerodynamics due to high angle of attack (52.101 deg). (node 2,
 blade 1)
 Warning: Turning off Unsteady Aerodynamics due to high angle of attack (45.13 deg). (node 1,
 blade 2)
 Warning: Turning off Unsteady Aerodynamics due to high angle of attack (45.102 deg). (node 2,
 blade 2)
+                                                                                                  
+ Time: 1 of 20 seconds.  Estimated final completion at 13:55:29.
+                                                                                                  
+ Time: 2 of 20 seconds.  Estimated final completion at 13:55:27.
+                                                                                                  
+ Time: 3 of 20 seconds.  Estimated final completion at 13:55:28.
+                                                                                                  
+ Time: 4 of 20 seconds.  Estimated final completion at 13:55:28.
+                                                                                                  
+ Time: 5 of 20 seconds.  Estimated final completion at 13:55:23.
+                                                                                                  
+ Time: 6 of 20 seconds.  Estimated final completion at 13:55:25.
+                                                                                                  
+ Time: 7 of 20 seconds.  Estimated final completion at 13:55:23.
+                                                                                                  
+ Time: 8 of 20 seconds.  Estimated final completion at 13:55:25.
+                                                                                                  
+ Time: 9 of 20 seconds.  Estimated final completion at 13:55:25.
+                                                                                                  
+ Time: 10 of 20 seconds.  Estimated final completion at 13:55:25.
+                                                                                                  
+ Time: 11 of 20 seconds.  Estimated final completion at 13:55:27.
+                                                                                                  
+ Time: 12 of 20 seconds.  Estimated final completion at 13:55:25.
+                                                                                                  
+ Time: 13 of 20 seconds.  Estimated final completion at 13:55:24.
+                                                                                                  
+ Time: 14 of 20 seconds.  Estimated final completion at 13:55:24.
+                                                                                                  
+ Time: 15 of 20 seconds.  Estimated final completion at 13:55:24.
+                                                                                                  
+ Time: 16 of 20 seconds.  Estimated final completion at 13:55:24.
+                                                                                                  
+ Time: 17 of 20 seconds.  Estimated final completion at 13:55:24.
+                                                                                                  
+ Time: 18 of 20 seconds.  Estimated final completion at 13:55:24.
+                                                                                                  
+ Time: 19 of 20 seconds.  Estimated final completion at 13:55:24.
+                                                                                                  
+ Time: 20 of 20 seconds.  Estimated final completion at 13:55:24.
+                                                                                                  

  Total Real Time:       17.729 seconds
  Total CPU Time:        17.562 seconds
  Simulation CPU Time:   17.453 seconds
  Simulated Time:        20 seconds
  Time Ratio (Sim/CPU):  1.1459

  OpenFAST terminated normally.

