
These predictions were generated by HydroDyn on 07-Mar-2023 at 16:37:46.




    Time                      Wave1Elev                       HydroFxi                       HydroFyi                       HydroFzi                       HydroMxi                       HydroMyi                       HydroMzi                       B1WvsFxi                       B2WvsFxi                       B3WvsFxi                       B4WvsFxi                       B1WvsFyi                       B2WvsFyi                       B3WvsFyi                       B4WvsFyi                       B1WvsFzi                       B2WvsFzi                       B3WvsFzi                       B4WvsFzi                       B1WvsMxi                       B2WvsMxi                       B3WvsMxi                       B4WvsMxi                       B1WvsMyi                       B2WvsMyi                       B3WvsMyi                       B4WvsMyi                       B1WvsMzi                       B2WvsMzi                       B3WvsMzi                       B4WvsMzi                      B1WvsF1xi                      B2WvsF1xi                      B3WvsF1xi                      B4WvsF1xi                      B1WvsF1yi                      B2WvsF1yi                      B3WvsF1yi                      B4WvsF1yi                      B1WvsF1zi                      B2WvsF1zi                      B3WvsF1zi                      B4WvsF1zi                      B1WvsM1xi                      B2WvsM1xi                      B3WvsM1xi                      B4WvsM1xi                      B1WvsM1yi                      B2WvsM1yi                      B3WvsM1yi                      B4WvsM1yi                      B1WvsM1zi                      B2WvsM1zi                      B3WvsM1zi                      B4WvsM1zi                        B1Surge                         B1Sway                        B1Heave                         B1Roll                        B1Pitch                          B1Yaw                        B2Surge                         B2Sway                        B2Heave                         B2Roll                        B2Pitch                          B2Yaw                        B3Surge                         B3Sway                        B3Heave                         B3Roll                        B3Pitch                          B3Yaw                        B4Surge                         B4Sway                        B4Heave                         B4Roll                        B4Pitch                          B4Yaw
   (sec)                            (m)                            (N)                            (N)                            (N)                          (N-m)                          (N-m)                          (N-m)                            (N)                            (N)                            (N)                            (N)                            (N)                            (N)                            (N)                            (N)                            (N)                            (N)                            (N)                            (N)                          (N-m)                          (N-m)                          (N-m)                          (N-m)                          (N-m)                          (N-m)                          (N-m)                          (N-m)                          (N-m)                          (N-m)                          (N-m)                          (N-m)                            (N)                            (N)                            (N)                            (N)                            (N)                            (N)                            (N)                            (N)                            (N)                            (N)                            (N)                            (N)                          (N-m)                          (N-m)                          (N-m)                          (N-m)                          (N-m)                          (N-m)                          (N-m)                          (N-m)                          (N-m)                          (N-m)                          (N-m)                          (N-m)                            (m)                            (m)                            (m)                          (rad)                          (rad)                          (rad)                            (m)                            (m)                            (m)                          (rad)                          (rad)                          (rad)                            (m)                            (m)                            (m)                          (rad)                          (rad)                          (rad)                            (m)                            (m)                            (m)                          (rad)                          (rad)                          (rad)
    0.0000                    -2.0654E-01                    -2.2868E+05                     2.6258E-01                     5.2700E+07                     1.6557E+02                    -2.9476E+06                    -3.4911E+01                     2.0132E+05                    -2.6384E+05                     1.1049E+05                    -2.6384E+05                     1.2337E-01                     2.1317E+04                     8.5991E-01                    -2.1318E+04                    -6.9918E+04                     3.0847E+05                     3.3004E+04                     3.0846E+05                     1.1039E+00                    -6.4407E+04                     4.4744E+00                     6.4408E+04                    -1.0736E+06                     3.5526E+06                    -1.3515E+06                     3.5526E+06                     5.3636E-02                    -2.8237E+03                     5.3044E-01                     2.8250E+03                     2.0132E+05                    -2.6384E+05                     1.1049E+05                    -2.6384E+05                     1.2337E-01                     2.1317E+04                     8.5991E-01                    -2.1318E+04                    -6.9918E+04                     3.0847E+05                     3.3004E+04                     3.0846E+05                     1.1039E+00                    -6.4407E+04                     4.4744E+00                     6.4408E+04                    -1.0736E+06                     3.5526E+06                    -1.3515E+06                     3.5526E+06                     5.3636E-02                    -2.8237E+03                     5.3044E-01                     2.8250E+03                     0.0000E+00                     0.0000E+00                     0.0000E+00                     0.0000E+00                     0.0000E+00                     0.0000E+00                     0.0000E+00                     0.0000E+00                     0.0000E+00                     0.0000E+00                     0.0000E+00                     0.0000E+00                     0.0000E+00                     0.0000E+00                     0.0000E+00                     0.0000E+00                     0.0000E+00                     0.0000E+00                     0.0000E+00                     0.0000E+00                     0.0000E+00                     0.0000E+00                     0.0000E+00                     0.0000E+00
    0.0125                    -2.0134E-01                    -1.9843E+05                     2.9716E-01                     5.2694E+07                     1.6533E+02                    -3.2998E+06                    -3.4993E+01                     2.0065E+05                    -2.5294E+05                     1.1951E+05                    -2.5294E+05                     1.2171E-01                     2.1259E+04                     8.6491E-01                    -2.1260E+04                    -7.0085E+04                     3.0656E+05                     3.0702E+04                     3.0656E+05                     1.0902E+00                    -6.9614E+04                     4.5791E+00                     6.9615E+04                    -1.0688E+06                     3.4243E+06                    -1.4352E+06                     3.4243E+06                     5.3962E-02                    -2.8161E+03                     5.2915E-01                     2.8174E+03                     2.0065E+05                    -2.5294E+05                     1.1951E+05                    -2.5294E+05                     1.2171E-01                     2.1259E+04                     8.6491E-01                    -2.1260E+04                    -7.0085E+04                     3.0656E+05                     3.0702E+04                     3.0656E+05                     1.0902E+00                    -6.9614E+04                     4.5791E+00                     6.9615E+04                    -1.0688E+06                     3.4243E+06                    -1.4352E+06                     3.4243E+06                     5.3962E-02                    -2.8161E+03                     5.2915E-01                     2.8174E+03                     0.0000E+00                     0.0000E+00                     0.0000E+00                     0.0000E+00                     0.0000E+00                     0.0000E+00                     0.0000E+00                     0.0000E+00                     0.0000E+00                     0.0000E+00                     0.0000E+00                     0.0000E+00                     0.0000E+00                     0.0000E+00                     0.0000E+00                     0.0000E+00                     0.0000E+00                     0.0000E+00                     0.0000E+00                     0.0000E+00                     0.0000E+00                     0.0000E+00                     0.0000E+00                     0.0000E+00
    0.0250                    -1.9614E-01                    -1.6819E+05                     3.3369E-01                     5.2688E+07                     1.6507E+02                    -3.6519E+06                    -3.5438E+01                     1.9997E+05                    -2.4204E+05                     1.2853E+05                    -2.4204E+05                     1.2004E-01                     2.1201E+04                     8.6990E-01                    -2.1202E+04                    -7.0251E+04                     3.0466E+05                     2.8400E+04                     3.0466E+05                     1.0765E+00                    -7.4821E+04                     4.6839E+00                     7.4823E+04                    -1.0640E+06                     3.2960E+06                    -1.5188E+06                     3.2960E+06                     5.4288E-02                    -2.8084E+03                     5.2786E-01                     2.8097E+03                     1.9997E+05                    -2.4204E+05                     1.2853E+05                    -2.4204E+05                     1.2004E-01                     2.1201E+04                     8.6990E-01                    -2.1202E+04                    -7.0251E+04                     3.0466E+05                     2.8400E+04                     3.0466E+05                     1.0765E+00                    -7.4821E+04                     4.6839E+00                     7.4823E+04                    -1.0640E+06                     3.2960E+06                    -1.5188E+06                     3.2960E+06                     5.4288E-02                    -2.8084E+03                     5.2786E-01                     2.8097E+03                     0.0000E+00                     0.0000E+00                     0.0000E+00                     0.0000E+00                     0.0000E+00                     0.0000E+00                     0.0000E+00                     0.0000E+00                     0.0000E+00                     0.0000E+00                     0.0000E+00                     0.0000E+00                     0.0000E+00                     0.0000E+00                     0.0000E+00                     0.0000E+00                     0.0000E+00                     0.0000E+00                     0.0000E+00                     0.0000E+00                     0.0000E+00                     0.0000E+00                     0.0000E+00                     0.0000E+00
    0.0375                    -1.9093E-01                    -1.3795E+05                     3.7022E-01                     5.2682E+07                     1.6561E+02                    -4.0039E+06                    -3.5883E+01                     1.9930E+05                    -2.3114E+05                     1.3754E+05                    -2.3114E+05                     1.1838E-01                     2.1143E+04                     8.7489E-01                    -2.1144E+04                    -7.0417E+04                     3.0276E+05                     2.6097E+04                     3.0275E+05                     1.0627E+00                    -8.0028E+04                     4.7887E+00                     8.0030E+04                    -1.0592E+06                     3.1677E+06                    -1.6024E+06                     3.1677E+06                     5.4614E-02                    -2.8007E+03                     5.2657E-01                     2.8020E+03                     1.9930E+05                    -2.3114E+05                     1.3754E+05                    -2.3114E+05                     1.1838E-01                     2.1143E+04                     8.7489E-01                    -2.1144E+04                    -7.0417E+04                     3.0276E+05                     2.6097E+04                     3.0275E+05                     1.0627E+00                    -8.0028E+04                     4.7887E+00                     8.0030E+04                    -1.0592E+06                     3.1677E+06                    -1.6024E+06                     3.1677E+06                     5.4614E-02                    -2.8007E+03                     5.2657E-01                     2.8020E+03                     0.0000E+00                     0.0000E+00                     0.0000E+00                     0.0000E+00                     0.0000E+00                     0.0000E+00                     0.0000E+00                     0.0000E+00                     0.0000E+00                     0.0000E+00                     0.0000E+00                     0.0000E+00                     0.0000E+00                     0.0000E+00                     0.0000E+00                     0.0000E+00                     0.0000E+00                     0.0000E+00                     0.0000E+00                     0.0000E+00                     0.0000E+00                     0.0000E+00                     0.0000E+00                     0.0000E+00
    0.0500                    -1.8573E-01                    -1.0772E+05                     4.0481E-01                     5.2676E+07                     1.6536E+02                    -4.3558E+06                    -3.6356E+01                     1.9863E+05                    -2.2024E+05                     1.4656E+05                    -2.2024E+05                     1.1672E-01                     2.1085E+04                     8.7988E-01                    -2.1086E+04                    -7.0583E+04                     3.0085E+05                     2.3795E+04                     3.0085E+05                     1.0490E+00                    -8.5235E+04                     4.8935E+00                     8.5238E+04                    -1.0545E+06                     3.0394E+06                    -1.6860E+06                     3.0394E+06                     5.4939E-02                    -2.7930E+03                     5.2527E-01                     2.7943E+03                     1.9863E+05                    -2.2024E+05                     1.4656E+05                    -2.2024E+05                     1.1672E-01                     2.1085E+04                     8.7988E-01                    -2.1086E+04                    -7.0583E+04                     3.0085E+05                     2.3795E+04                     3.0085E+05                     1.0490E+00                    -8.5235E+04                     4.8935E+00                     8.5238E+04                    -1.0545E+06                     3.0394E+06                    -1.6860E+06                     3.0394E+06                     5.4939E-02                    -2.7930E+03                     5.2527E-01                     2.7943E+03                     0.0000E+00                     0.0000E+00                     0.0000E+00                     0.0000E+00                     0.0000E+00                     0.0000E+00                     0.0000E+00                     0.0000E+00                     0.0000E+00                     0.0000E+00                     0.0000E+00                     0.0000E+00                     0.0000E+00                     0.0000E+00                     0.0000E+00                     0.0000E+00                     0.0000E+00                     0.0000E+00                     0.0000E+00                     0.0000E+00                     0.0000E+00                     0.0000E+00                     0.0000E+00                     0.0000E+00
    0.0625                    -1.8053E-01                    -7.7484E+04                     4.3939E-01                     5.2670E+07                     1.6591E+02                    -4.7076E+06                    -3.6439E+01                     1.9796E+05                    -2.0934E+05                     1.5558E+05                    -2.0934E+05                     1.1506E-01                     2.1027E+04                     8.8488E-01                    -2.1028E+04                    -7.0749E+04                     2.9895E+05                     2.1493E+04                     2.9894E+05                     1.0352E+00                    -9.0442E+04                     4.9983E+00                     9.0445E+04                    -1.0497E+06                     2.9111E+06                    -1.7696E+06                     2.9111E+06                     5.5265E-02                    -2.7853E+03                     5.2398E-01                     2.7866E+03                     1.9796E+05                    -2.0934E+05                     1.5558E+05                    -2.0934E+05                     1.1506E-01                     2.1027E+04                     8.8488E-01                    -2.1028E+04                    -7.0749E+04                     2.9895E+05                     2.1493E+04                     2.9894E+05                     1.0352E+00                    -9.0442E+04                     4.9983E+00                     9.0445E+04                    -1.0497E+06                     2.9111E+06                    -1.7696E+06                     2.9111E+06                     5.5265E-02                    -2.7853E+03                     5.2398E-01                     2.7866E+03                     0.0000E+00                     0.0000E+00                     0.0000E+00                     0.0000E+00                     0.0000E+00                     0.0000E+00                     0.0000E+00                     0.0000E+00                     0.0000E+00                     0.0000E+00                     0.0000E+00                     0.0000E+00                     0.0000E+00                     0.0000E+00                     0.0000E+00                     0.0000E+00                     0.0000E+00                     0.0000E+00                     0.0000E+00                     0.0000E+00                     0.0000E+00                     0.0000E+00                     0.0000E+00                     0.0000E+00
    0.0750                    -1.7533E-01                    -4.7252E+04                     4.7592E-01                     5.2664E+07                     1.6566E+02                    -5.0594E+06                    -3.6884E+01                     1.9729E+05                    -1.9844E+05                     1.6460E+05                    -1.9844E+05                     1.1340E-01                     2.0969E+04                     8.8987E-01                    -2.0970E+04                    -7.0916E+04                     2.9705E+05                     1.9191E+04                     2.9704E+05                     1.0215E+00                    -9.5649E+04                     5.1031E+00                     9.5653E+04                    -1.0449E+06                     2.7828E+06                    -1.8532E+06                     2.7828E+06                     5.5591E-02                    -2.7776E+03                     5.2269E-01                     2.7790E+03                     1.9729E+05                    -1.9844E+05                     1.6460E+05                    -1.9844E+05                     1.1340E-01                     2.0969E+04                     8.8987E-01                    -2.0970E+04                    -7.0916E+04                     2.9705E+05                     1.9191E+04                     2.9704E+05                     1.0215E+00                    -9.5649E+04                     5.1031E+00                     9.5653E+04                    -1.0449E+06                     2.7828E+06                    -1.8532E+06                     2.7828E+06                     5.5591E-02                    -2.7776E+03                     5.2269E-01                     2.7790E+03                     0.0000E+00                     0.0000E+00                     0.0000E+00                     0.0000E+00                     0.0000E+00                     0.0000E+00                     0.0000E+00                     0.0000E+00                     0.0000E+00                     0.0000E+00                     0.0000E+00                     0.0000E+00                     0.0000E+00                     0.0000E+00                     0.0000E+00                     0.0000E+00                     0.0000E+00                     0.0000E+00                     0.0000E+00                     0.0000E+00                     0.0000E+00                     0.0000E+00                     0.0000E+00                     0.0000E+00
    0.0875                    -1.7012E-01                    -1.7022E+04                     5.1245E-01                     5.2658E+07                     1.6540E+02                    -5.4110E+06                    -3.6938E+01                     1.9662E+05                    -1.8754E+05                     1.7361E+05                    -1.8754E+05                     1.1173E-01                     2.0911E+04                     8.9486E-01                    -2.0912E+04                    -7.1082E+04                     2.9514E+05                     1.6888E+04                     2.9514E+05                     1.0077E+00                    -1.0086E+05                     5.2079E+00                     1.0086E+05                    -1.0401E+06                     2.6545E+06                    -1.9369E+06                     2.6545E+06                     5.5917E-02                    -2.7700E+03                     5.2140E-01                     2.7713E+03                     1.9662E+05                    -1.8754E+05                     1.7361E+05                    -1.8754E+05                     1.1173E-01                     2.0911E+04                     8.9486E-01                    -2.0912E+04                    -7.1082E+04                     2.9514E+05                     1.6888E+04                     2.9514E+05                     1.0077E+00                    -1.0086E+05                     5.2079E+00                     1.0086E+05                    -1.0401E+06                     2.6545E+06                    -1.9369E+06                     2.6545E+06                     5.5917E-02                    -2.7700E+03                     5.2140E-01                     2.7713E+03                     0.0000E+00                     0.0000E+00                     0.0000E+00                     0.0000E+00                     0.0000E+00                     0.0000E+00                     0.0000E+00                     0.0000E+00                     0.0000E+00                     0.0000E+00                     0.0000E+00                     0.0000E+00                     0.0000E+00                     0.0000E+00                     0.0000E+00                     0.0000E+00                     0.0000E+00                     0.0000E+00                     0.0000E+00                     0.0000E+00                     0.0000E+00                     0.0000E+00                     0.0000E+00                     0.0000E+00
    0.1000                    -1.6492E-01                     1.3206E+04                     5.4703E-01                     5.2652E+07                     1.6594E+02                    -5.7626E+06                    -3.7411E+01                     1.9595E+05                    -1.7664E+05                     1.8263E+05                    -1.7664E+05                     1.1007E-01                     2.0853E+04                     8.9985E-01                    -2.0854E+04                    -7.1248E+04                     2.9324E+05                     1.4586E+04                     2.9323E+05                     9.9398E-01                    -1.0606E+05                     5.3127E+00                     1.0607E+05                    -1.0354E+06                     2.5262E+06                    -2.0205E+06                     2.5262E+06                     5.6243E-02                    -2.7623E+03                     5.2011E-01                     2.7636E+03                     1.9595E+05                    -1.7664E+05                     1.8263E+05                    -1.7664E+05                     1.1007E-01                     2.0853E+04                     8.9985E-01                    -2.0854E+04                    -7.1248E+04                     2.9324E+05                     1.4586E+04                     2.9323E+05                     9.9398E-01                    -1.0606E+05                     5.3127E+00                     1.0607E+05                    -1.0354E+06                     2.5262E+06                    -2.0205E+06                     2.5262E+06                     5.6243E-02                    -2.7623E+03                     5.2011E-01                     2.7636E+03                     0.0000E+00                     0.0000E+00                     0.0000E+00                     0.0000E+00                     0.0000E+00                     0.0000E+00                     0.0000E+00                     0.0000E+00                     0.0000E+00                     0.0000E+00                     0.0000E+00                     0.0000E+00                     0.0000E+00                     0.0000E+00                     0.0000E+00                     0.0000E+00                     0.0000E+00                     0.0000E+00                     0.0000E+00                     0.0000E+00                     0.0000E+00                     0.0000E+00                     0.0000E+00                     0.0000E+00
    0.1125                    -1.5972E-01                     4.3432E+04                     5.8357E-01                     5.2646E+07                     1.6570E+02                    -6.1140E+06                    -3.7856E+01                     1.9528E+05                    -1.6574E+05                     1.9165E+05                    -1.6575E+05                     1.0841E-01                     2.0795E+04                     9.0485E-01                    -2.0796E+04                    -7.1414E+04                     2.9134E+05                     1.2284E+04                     2.9133E+05                     9.8024E-01                    -1.1127E+05                     5.4175E+00                     1.1128E+05                    -1.0306E+06                     2.3979E+06                    -2.1041E+06                     2.3979E+06                     5.6568E-02                    -2.7546E+03                     5.1882E-01                     2.7559E+03                     1.9528E+05                    -1.6574E+05                     1.9165E+05                    -1.6575E+05                     1.0841E-01                     2.0795E+04                     9.0485E-01                    -2.0796E+04                    -7.1414E+04                     2.9134E+05                     1.2284E+04                     2.9133E+05                     9.8024E-01                    -1.1127E+05                     5.4175E+00                     1.1128E+05                    -1.0306E+06                     2.3979E+06                    -2.1041E+06                     2.3979E+06                     5.6568E-02                    -2.7546E+03                     5.1882E-01                     2.7559E+03                     0.0000E+00                     0.0000E+00                     0.0000E+00                     0.0000E+00                     0.0000E+00                     0.0000E+00                     0.0000E+00                     0.0000E+00                     0.0000E+00                     0.0000E+00                     0.0000E+00                     0.0000E+00                     0.0000E+00                     0.0000E+00                     0.0000E+00                     0.0000E+00                     0.0000E+00                     0.0000E+00                     0.0000E+00                     0.0000E+00                     0.0000E+00                     0.0000E+00                     0.0000E+00                     0.0000E+00
    0.1250                    -1.5452E-01                     7.3656E+04                     6.2010E-01                     5.2639E+07                     1.6545E+02                    -6.4654E+06                    -3.7910E+01                     1.9461E+05                    -1.5485E+05                     2.0067E+05                    -1.5485E+05                     1.0675E-01                     2.0737E+04                     9.0984E-01                    -2.0738E+04                    -7.1580E+04                     2.8943E+05                     9.9817E+03                     2.8943E+05                     9.6649E-01                    -1.1648E+05                     5.5222E+00                     1.1648E+05                    -1.0258E+06                     2.2696E+06                    -2.1877E+06                     2.2696E+06                     5.6894E-02                    -2.7469E+03                     5.1753E-01                     2.7482E+03                     1.9461E+05                    -1.5485E+05                     2.0067E+05                    -1.5485E+05                     1.0675E-01                     2.0737E+04                     9.0984E-01                    -2.0738E+04                    -7.1580E+04                     2.8943E+05                     9.9817E+03                     2.8943E+05                     9.6649E-01                    -1.1648E+05                     5.5222E+00                     1.1648E+05                    -1.0258E+06                     2.2696E+06                    -2.1877E+06                     2.2696E+06                     5.6894E-02                    -2.7469E+03                     5.1753E-01                     2.7482E+03                     0.0000E+00                     0.0000E+00                     0.0000E+00                     0.0000E+00                     0.0000E+00                     0.0000E+00                     0.0000E+00                     0.0000E+00                     0.0000E+00                     0.0000E+00                     0.0000E+00                     0.0000E+00                     0.0000E+00                     0.0000E+00                     0.0000E+00                     0.0000E+00                     0.0000E+00                     0.0000E+00                     0.0000E+00                     0.0000E+00                     0.0000E+00                     0.0000E+00                     0.0000E+00                     0.0000E+00
    0.1375                    -1.4931E-01                     1.0388E+05                     6.5664E-01                     5.2633E+07                     1.6520E+02                    -6.8167E+06                    -3.8355E+01                     1.9393E+05                    -1.4395E+05                     2.0968E+05                    -1.4395E+05                     1.0509E-01                     2.0679E+04                     9.1483E-01                    -2.0680E+04                    -7.1747E+04                     2.8753E+05                     7.6794E+03                     2.8752E+05                     9.5275E-01                    -1.2168E+05                     5.6270E+00                     1.2169E+05                    -1.0210E+06                     2.1413E+06                    -2.2713E+06                     2.1413E+06                     5.7220E-02                    -2.7392E+03                     5.1624E-01                     2.7406E+03                     1.9393E+05                    -1.4395E+05                     2.0968E+05                    -1.4395E+05                     1.0509E-01                     2.0679E+04                     9.1483E-01                    -2.0680E+04                    -7.1747E+04                     2.8753E+05                     7.6794E+03                     2.8752E+05                     9.5275E-01                    -1.2168E+05                     5.6270E+00                     1.2169E+05                    -1.0210E+06                     2.1413E+06                    -2.2713E+06                     2.1413E+06                     5.7220E-02                    -2.7392E+03                     5.1624E-01                     2.7406E+03                     0.0000E+00                     0.0000E+00                     0.0000E+00                     0.0000E+00                     0.0000E+00                     0.0000E+00                     0.0000E+00                     0.0000E+00                     0.0000E+00                     0.0000E+00                     0.0000E+00                     0.0000E+00                     0.0000E+00                     0.0000E+00                     0.0000E+00                     0.0000E+00                     0.0000E+00                     0.0000E+00                     0.0000E+00                     0.0000E+00                     0.0000E+00                     0.0000E+00                     0.0000E+00                     0.0000E+00
    0.1500                    -1.4411E-01                     1.3410E+05                     6.9122E-01                     5.2627E+07                     1.6574E+02                    -7.1679E+06                    -3.8828E+01                     1.9326E+05                    -1.3305E+05                     2.1870E+05                    -1.3305E+05                     1.0342E-01                     2.0621E+04                     9.1982E-01                    -2.0622E+04                    -7.1913E+04                     2.8563E+05                     5.3772E+03                     2.8562E+05                     9.3900E-01                    -1.2689E+05                     5.7318E+00                     1.2690E+05                    -1.0162E+06                     2.0130E+06                    -2.3549E+06                     2.0130E+06                     5.7546E-02                    -2.7316E+03                     5.1494E-01                     2.7329E+03                     1.9326E+05                    -1.3305E+05                     2.1870E+05                    -1.3305E+05                     1.0342E-01                     2.0621E+04                     9.1982E-01                    -2.0622E+04                    -7.1913E+04                     2.8563E+05                     5.3772E+03                     2.8562E+05                     9.3900E-01                    -1.2689E+05                     5.7318E+00                     1.2690E+05                    -1.0162E+06                     2.0130E+06                    -2.3549E+06                     2.0130E+06                     5.7546E-02                    -2.7316E+03                     5.1494E-01                     2.7329E+03                     0.0000E+00                     0.0000E+00                     0.0000E+00                     0.0000E+00                     0.0000E+00                     0.0000E+00                     0.0000E+00                     0.0000E+00                     0.0000E+00                     0.0000E+00                     0.0000E+00                     0.0000E+00                     0.0000E+00                     0.0000E+00                     0.0000E+00                     0.0000E+00                     0.0000E+00                     0.0000E+00                     0.0000E+00                     0.0000E+00                     0.0000E+00                     0.0000E+00                     0.0000E+00                     0.0000E+00
    0.1625                    -1.3891E-01                     1.6432E+05                     7.2580E-01                     5.2621E+07                     1.6550E+02                    -7.5190E+06                    -3.8520E+01                     1.9259E+05                    -1.2215E+05                     2.2772E+05                    -1.2215E+05                     1.0176E-01                     2.0564E+04                     9.2482E-01                    -2.0564E+04                    -7.2079E+04                     2.8372E+05                     3.0749E+03                     2.8372E+05                     9.2526E-01                    -1.3210E+05                     5.8366E+00                     1.3210E+05                    -1.0115E+06                     1.8847E+06                    -2.4385E+06                     1.8847E+06                     5.7871E-02                    -2.7239E+03                     5.1365E-01                     2.7252E+03                     1.9259E+05                    -1.2215E+05                     2.2772E+05                    -1.2215E+05                     1.0176E-01                     2.0564E+04                     9.2482E-01                    -2.0564E+04                    -7.2079E+04                     2.8372E+05                     3.0749E+03                     2.8372E+05                     9.2526E-01                    -1.3210E+05                     5.8366E+00                     1.3210E+05                    -1.0115E+06                     1.8847E+06                    -2.4385E+06                     1.8847E+06                     5.7871E-02                    -2.7239E+03                     5.1365E-01                     2.7252E+03                     0.0000E+00                     0.0000E+00                     0.0000E+00                     0.0000E+00                     0.0000E+00                     0.0000E+00                     0.0000E+00                     0.0000E+00                     0.0000E+00                     0.0000E+00                     0.0000E+00                     0.0000E+00                     0.0000E+00                     0.0000E+00                     0.0000E+00                     0.0000E+00                     0.0000E+00                     0.0000E+00                     0.0000E+00                     0.0000E+00                     0.0000E+00                     0.0000E+00                     0.0000E+00                     0.0000E+00
    0.1750                    -1.3370E-01                     1.9454E+05                     7.6233E-01                     5.2615E+07                     1.6604E+02                    -7.8701E+06                    -3.9355E+01                     1.9192E+05                    -1.1125E+05                     2.3674E+05                    -1.1125E+05                     1.0010E-01                     2.0506E+04                     9.2981E-01                    -2.0506E+04                    -7.2245E+04                     2.8182E+05                     7.7267E+02                     2.8181E+05                     9.1151E-01                    -1.3731E+05                     5.9414E+00                     1.3731E+05                    -1.0067E+06                     1.7564E+06                    -2.5222E+06                     1.7564E+06                     5.8197E-02                    -2.7162E+03                     5.1236E-01                     2.7175E+03                     1.9192E+05                    -1.1125E+05                     2.3674E+05                    -1.1125E+05                     1.0010E-01                     2.0506E+04                     9.2981E-01                    -2.0506E+04                    -7.2245E+04                     2.8182E+05                     7.7267E+02                     2.8181E+05                     9.1151E-01                    -1.3731E+05                     5.9414E+00                     1.3731E+05                    -1.0067E+06                     1.7564E+06                    -2.5222E+06                     1.7564E+06                     5.8197E-02                    -2.7162E+03                     5.1236E-01                     2.7175E+03                     0.0000E+00                     0.0000E+00                     0.0000E+00                     0.0000E+00                     0.0000E+00                     0.0000E+00                     0.0000E+00                     0.0000E+00                     0.0000E+00                     0.0000E+00                     0.0000E+00                     0.0000E+00                     0.0000E+00                     0.0000E+00                     0.0000E+00                     0.0000E+00                     0.0000E+00                     0.0000E+00                     0.0000E+00                     0.0000E+00                     0.0000E+00                     0.0000E+00                     0.0000E+00                     0.0000E+00
    0.1875                    -1.2850E-01                     2.2476E+05                     7.9886E-01                     5.2609E+07                     1.6579E+02                    -8.2210E+06                    -3.9800E+01                     1.9125E+05                    -1.0035E+05                     2.4575E+05                    -1.0035E+05                     9.8438E-02                     2.0448E+04                     9.3480E-01                    -2.0448E+04                    -7.2412E+04                     2.7992E+05                    -1.5296E+03                     2.7991E+05                     8.9777E-01                    -1.4251E+05                     6.0462E+00                     1.4252E+05                    -1.0019E+06                     1.6281E+06                    -2.6058E+06                     1.6281E+06                     5.8523E-02                    -2.7085E+03                     5.1107E-01                     2.7098E+03                     1.9125E+05                    -1.0035E+05                     2.4575E+05                    -1.0035E+05                     9.8438E-02                     2.0448E+04                     9.3480E-01                    -2.0448E+04                    -7.2412E+04                     2.7992E+05                    -1.5296E+03                     2.7991E+05                     8.9777E-01                    -1.4251E+05                     6.0462E+00                     1.4252E+05                    -1.0019E+06                     1.6281E+06                    -2.6058E+06                     1.6281E+06                     5.8523E-02                    -2.7085E+03                     5.1107E-01                     2.7098E+03                     0.0000E+00                     0.0000E+00                     0.0000E+00                     0.0000E+00                     0.0000E+00                     0.0000E+00                     0.0000E+00                     0.0000E+00                     0.0000E+00                     0.0000E+00                     0.0000E+00                     0.0000E+00                     0.0000E+00                     0.0000E+00                     0.0000E+00                     0.0000E+00                     0.0000E+00                     0.0000E+00                     0.0000E+00                     0.0000E+00                     0.0000E+00                     0.0000E+00                     0.0000E+00                     0.0000E+00
    0.2000                    -1.2330E-01                     2.5497E+05                     8.3344E-01                     5.2603E+07                     1.6554E+02                    -8.5718E+06                    -3.9883E+01                     1.9058E+05                    -8.9448E+04                     2.5477E+05                    -8.9449E+04                     9.6776E-02                     2.0390E+04                     9.3979E-01                    -2.0390E+04                    -7.2578E+04                     2.7801E+05                    -3.8318E+03                     2.7801E+05                     8.8402E-01                    -1.4772E+05                     6.1510E+00                     1.4773E+05                    -9.9714E+05                     1.4998E+06                    -2.6894E+06                     1.4998E+06                     5.8849E-02                    -2.7008E+03                     5.0978E-01                     2.7021E+03                     1.9058E+05                    -8.9448E+04                     2.5477E+05                    -8.9449E+04                     9.6776E-02                     2.0390E+04                     9.3979E-01                    -2.0390E+04                    -7.2578E+04                     2.7801E+05                    -3.8318E+03                     2.7801E+05                     8.8402E-01                    -1.4772E+05                     6.1510E+00                     1.4773E+05                    -9.9714E+05                     1.4998E+06                    -2.6894E+06                     1.4998E+06                     5.8849E-02                    -2.7008E+03                     5.0978E-01                     2.7021E+03                     0.0000E+00                     0.0000E+00                     0.0000E+00                     0.0000E+00                     0.0000E+00                     0.0000E+00                     0.0000E+00                     0.0000E+00                     0.0000E+00                     0.0000E+00                     0.0000E+00                     0.0000E+00                     0.0000E+00                     0.0000E+00                     0.0000E+00                     0.0000E+00                     0.0000E+00                     0.0000E+00                     0.0000E+00                     0.0000E+00                     0.0000E+00                     0.0000E+00                     0.0000E+00                     0.0000E+00
    0.2125                    -1.1849E-01                     2.8329E+05                     8.6889E-01                     5.2596E+07                     1.6607E+02                    -8.8877E+06                    -3.9712E+01                     1.8914E+05                    -7.8842E+04                     2.6322E+05                    -7.8843E+04                     9.5103E-02                     2.0084E+04                     9.4371E-01                    -2.0084E+04                    -7.2702E+04                     2.7570E+05                    -6.0001E+03                     2.7569E+05                     8.6985E-01                    -1.5371E+05                     6.2490E+00                     1.5372E+05                    -9.8830E+05                     1.3772E+06                    -2.7691E+06                     1.3772E+06                     5.9162E-02                    -2.6604E+03                     5.0837E-01                     2.6617E+03                     1.8914E+05                    -7.8842E+04                     2.6322E+05                    -7.8843E+04                     9.5103E-02                     2.0084E+04                     9.4371E-01                    -2.0084E+04                    -7.2702E+04                     2.7570E+05                    -6.0001E+03                     2.7569E+05                     8.6985E-01                    -1.5371E+05                     6.2490E+00                     1.5372E+05                    -9.8830E+05                     1.3772E+06                    -2.7691E+06                     1.3772E+06                     5.9162E-02                    -2.6604E+03                     5.0837E-01                     2.6617E+03                     0.0000E+00                     0.0000E+00                     0.0000E+00                     0.0000E+00                     0.0000E+00                     0.0000E+00                     0.0000E+00                     0.0000E+00                     0.0000E+00                     0.0000E+00                     0.0000E+00                     0.0000E+00                     0.0000E+00                     0.0000E+00                     0.0000E+00                     0.0000E+00                     0.0000E+00                     0.0000E+00                     0.0000E+00                     0.0000E+00                     0.0000E+00                     0.0000E+00                     0.0000E+00                     0.0000E+00
    0.2250                    -1.1369E-01                     3.1161E+05                     9.0239E-01                     5.2589E+07                     1.6583E+02                    -9.2036E+06                    -3.9569E+01                     1.8770E+05                    -6.8236E+04                     2.7168E+05                    -6.8237E+04                     9.3429E-02                     1.9779E+04                     9.4763E-01                    -1.9779E+04                    -7.2826E+04                     2.7338E+05                    -8.1684E+03                     2.7337E+05                     8.5567E-01                    -1.5970E+05                     6.3471E+00                     1.5970E+05                    -9.7946E+05                     1.2545E+06                    -2.8488E+06                     1.2545E+06                     5.9475E-02                    -2.6199E+03                     5.0696E-01                     2.6212E+03                     1.8770E+05                    -6.8236E+04                     2.7168E+05                    -6.8237E+04                     9.3429E-02                     1.9779E+04                     9.4763E-01                    -1.9779E+04                    -7.2826E+04                     2.7338E+05                    -8.1684E+03                     2.7337E+05                     8.5567E-01                    -1.5970E+05                     6.3471E+00                     1.5970E+05                    -9.7946E+05                     1.2545E+06                    -2.8488E+06                     1.2545E+06                     5.9475E-02                    -2.6199E+03                     5.0696E-01                     2.6212E+03                     0.0000E+00                     0.0000E+00                     0.0000E+00                     0.0000E+00                     0.0000E+00                     0.0000E+00                     0.0000E+00                     0.0000E+00                     0.0000E+00                     0.0000E+00                     0.0000E+00                     0.0000E+00                     0.0000E+00                     0.0000E+00                     0.0000E+00                     0.0000E+00                     0.0000E+00                     0.0000E+00                     0.0000E+00                     0.0000E+00                     0.0000E+00                     0.0000E+00                     0.0000E+00                     0.0000E+00
    0.2375                    -1.0888E-01                     3.3992E+05                     9.3784E-01                     5.2583E+07                     1.6558E+02                    -9.5193E+06                    -3.9496E+01                     1.8625E+05                    -5.7630E+04                     2.8013E+05                    -5.7631E+04                     9.1755E-02                     1.9474E+04                     9.5155E-01                    -1.9474E+04                    -7.2950E+04                     2.7106E+05                    -1.0337E+04                     2.7106E+05                     8.4149E-01                    -1.6568E+05                     6.4451E+00                     1.6569E+05                    -9.7062E+05                     1.1318E+06                    -2.9285E+06                     1.1318E+06                     5.9787E-02                    -2.5794E+03                     5.0555E-01                     2.5808E+03                     1.8625E+05                    -5.7630E+04                     2.8013E+05                    -5.7631E+04                     9.1755E-02                     1.9474E+04                     9.5155E-01                    -1.9474E+04                    -7.2950E+04                     2.7106E+05                    -1.0337E+04                     2.7106E+05                     8.4149E-01                    -1.6568E+05                     6.4451E+00                     1.6569E+05                    -9.7062E+05                     1.1318E+06                    -2.9285E+06                     1.1318E+06                     5.9787E-02                    -2.5794E+03                     5.0555E-01                     2.5808E+03                     0.0000E+00                     0.0000E+00                     0.0000E+00                     0.0000E+00                     0.0000E+00                     0.0000E+00                     0.0000E+00                     0.0000E+00                     0.0000E+00                     0.0000E+00                     0.0000E+00                     0.0000E+00                     0.0000E+00                     0.0000E+00                     0.0000E+00                     0.0000E+00                     0.0000E+00                     0.0000E+00                     0.0000E+00                     0.0000E+00                     0.0000E+00                     0.0000E+00                     0.0000E+00                     0.0000E+00
    0.2500                    -1.0408E-01                     3.6824E+05                     9.7329E-01                     5.2576E+07                     1.6612E+02                    -9.8350E+06                    -3.9326E+01                     1.8481E+05                    -4.7025E+04                     2.8858E+05                    -4.7025E+04                     9.0081E-02                     1.9168E+04                     9.5547E-01                    -1.9168E+04                    -7.3074E+04                     2.6875E+05                    -1.2505E+04                     2.6874E+05                     8.2732E-01                    -1.7167E+05                     6.5432E+00                     1.7168E+05                    -9.6178E+05                     1.0091E+06                    -3.0082E+06                     1.0091E+06                     6.0100E-02                    -2.5390E+03                     5.0414E-01                     2.5403E+03                     1.8481E+05                    -4.7025E+04                     2.8858E+05                    -4.7025E+04                     9.0081E-02                     1.9168E+04                     9.5547E-01                    -1.9168E+04                    -7.3074E+04                     2.6875E+05                    -1.2505E+04                     2.6874E+05                     8.2732E-01                    -1.7167E+05                     6.5432E+00                     1.7168E+05                    -9.6178E+05                     1.0091E+06                    -3.0082E+06                     1.0091E+06                     6.0100E-02                    -2.5390E+03                     5.0414E-01                     2.5403E+03                     0.0000E+00                     0.0000E+00                     0.0000E+00                     0.0000E+00                     0.0000E+00                     0.0000E+00                     0.0000E+00                     0.0000E+00                     0.0000E+00                     0.0000E+00                     0.0000E+00                     0.0000E+00                     0.0000E+00                     0.0000E+00                     0.0000E+00                     0.0000E+00                     0.0000E+00                     0.0000E+00                     0.0000E+00                     0.0000E+00                     0.0000E+00                     0.0000E+00                     0.0000E+00                     0.0000E+00
    0.2625                    -9.9272E-02                     3.9655E+05                     1.0087E+00                     5.2569E+07                     1.6586E+02                    -1.0151E+07                    -3.9057E+01                     1.8337E+05                    -3.6419E+04                     2.9704E+05                    -3.6419E+04                     8.8408E-02                     1.8863E+04                     9.5939E-01                    -1.8863E+04                    -7.3198E+04                     2.6643E+05                    -1.4673E+04                     2.6643E+05                     8.1314E-01                    -1.7766E+05                     6.6412E+00                     1.7767E+05                    -9.5294E+05                     8.8646E+05                    -3.0879E+06                     8.8646E+05                     6.0413E-02                    -2.4985E+03                     5.0273E-01                     2.4998E+03                     1.8337E+05                    -3.6419E+04                     2.9704E+05                    -3.6419E+04                     8.8408E-02                     1.8863E+04                     9.5939E-01                    -1.8863E+04                    -7.3198E+04                     2.6643E+05                    -1.4673E+04                     2.6643E+05                     8.1314E-01                    -1.7766E+05                     6.6412E+00                     1.7767E+05                    -9.5294E+05                     8.8646E+05                    -3.0879E+06                     8.8646E+05                     6.0413E-02                    -2.4985E+03                     5.0273E-01                     2.4998E+03                     0.0000E+00                     0.0000E+00                     0.0000E+00                     0.0000E+00                     0.0000E+00                     0.0000E+00                     0.0000E+00                     0.0000E+00                     0.0000E+00                     0.0000E+00                     0.0000E+00                     0.0000E+00                     0.0000E+00                     0.0000E+00                     0.0000E+00                     0.0000E+00                     0.0000E+00                     0.0000E+00                     0.0000E+00                     0.0000E+00                     0.0000E+00                     0.0000E+00                     0.0000E+00                     0.0000E+00
    0.2750                    -9.4467E-02                     4.2486E+05                     1.0442E+00                     5.2562E+07                     1.6640E+02                    -1.0466E+07                    -3.8789E+01                     1.8193E+05                    -2.5813E+04                     3.0549E+05                    -2.5813E+04                     8.6734E-02                     1.8557E+04                     9.6331E-01                    -1.8557E+04                    -7.3322E+04                     2.6412E+05                    -1.6842E+04                     2.6411E+05                     7.9896E-01                    -1.8365E+05                     6.7393E+00                     1.8366E+05                    -9.4409E+05                     7.6379E+05                    -3.1676E+06                     7.6378E+05                     6.0726E-02                    -2.4581E+03                     5.0132E-01                     2.4594E+03                     1.8193E+05                    -2.5813E+04                     3.0549E+05                    -2.5813E+04                     8.6734E-02                     1.8557E+04                     9.6331E-01                    -1.8557E+04                    -7.3322E+04                     2.6412E+05                    -1.6842E+04                     2.6411E+05                     7.9896E-01                    -1.8365E+05                     6.7393E+00                     1.8366E+05                    -9.4409E+05                     7.6379E+05                    -3.1676E+06                     7.6378E+05                     6.0726E-02                    -2.4581E+03                     5.0132E-01                     2.4594E+03                     0.0000E+00                     0.0000E+00                     0.0000E+00                     0.0000E+00                     0.0000E+00                     0.0000E+00                     0.0000E+00                     0.0000E+00                     0.0000E+00                     0.0000E+00                     0.0000E+00                     0.0000E+00                     0.0000E+00                     0.0000E+00                     0.0000E+00                     0.0000E+00                     0.0000E+00                     0.0000E+00                     0.0000E+00                     0.0000E+00                     0.0000E+00                     0.0000E+00                     0.0000E+00                     0.0000E+00
    0.2875                    -8.9661E-02                     4.5317E+05                     1.0796E+00                     5.2556E+07                     1.6656E+02                    -1.0782E+07                    -3.8715E+01                     1.8049E+05                    -1.5207E+04                     3.1394E+05                    -1.5208E+04                     8.5060E-02                     1.8252E+04                     9.6723E-01                    -1.8252E+04                    -7.3446E+04                     2.6180E+05                    -1.9010E+04                     2.6180E+05                     7.8479E-01                    -1.8963E+05                     6.8373E+00                     1.8965E+05                    -9.3525E+05                     6.4111E+05                    -3.2473E+06                     6.4111E+05                     6.1039E-02                    -2.4176E+03                     4.9991E-01                     2.4189E+03                     1.8049E+05                    -1.5207E+04                     3.1394E+05                    -1.5208E+04                     8.5060E-02                     1.8252E+04                     9.6723E-01                    -1.8252E+04                    -7.3446E+04                     2.6180E+05                    -1.9010E+04                     2.6180E+05                     7.8479E-01                    -1.8963E+05                     6.8373E+00                     1.8965E+05                    -9.3525E+05                     6.4111E+05                    -3.2473E+06                     6.4111E+05                     6.1039E-02                    -2.4176E+03                     4.9991E-01                     2.4189E+03                     0.0000E+00                     0.0000E+00                     0.0000E+00                     0.0000E+00                     0.0000E+00                     0.0000E+00                     0.0000E+00                     0.0000E+00                     0.0000E+00                     0.0000E+00                     0.0000E+00                     0.0000E+00                     0.0000E+00                     0.0000E+00                     0.0000E+00                     0.0000E+00                     0.0000E+00                     0.0000E+00                     0.0000E+00                     0.0000E+00                     0.0000E+00                     0.0000E+00                     0.0000E+00                     0.0000E+00
    0.3000                    -8.4856E-02                     4.8148E+05                     1.1151E+00                     5.2549E+07                     1.6630E+02                    -1.1097E+07                    -3.8545E+01                     1.7905E+05                    -4.6011E+03                     3.2240E+05                    -4.6016E+03                     8.3386E-02                     1.7947E+04                     9.7115E-01                    -1.7947E+04                    -7.3570E+04                     2.5949E+05                    -2.1178E+04                     2.5948E+05                     7.7061E-01                    -1.9562E+05                     6.9354E+00                     1.9563E+05                    -9.2641E+05                     5.1844E+05                    -3.3270E+06                     5.1843E+05                     6.1352E-02                    -2.3771E+03                     4.9851E-01                     2.3785E+03                     1.7905E+05                    -4.6011E+03                     3.2240E+05                    -4.6016E+03                     8.3386E-02                     1.7947E+04                     9.7115E-01                    -1.7947E+04                    -7.3570E+04                     2.5949E+05                    -2.1178E+04                     2.5948E+05                     7.7061E-01                    -1.9562E+05                     6.9354E+00                     1.9563E+05                    -9.2641E+05                     5.1844E+05                    -3.3270E+06                     5.1843E+05                     6.1352E-02                    -2.3771E+03                     4.9851E-01                     2.3785E+03                     0.0000E+00                     0.0000E+00                     0.0000E+00                     0.0000E+00                     0.0000E+00                     0.0000E+00                     0.0000E+00                     0.0000E+00                     0.0000E+00                     0.0000E+00                     0.0000E+00                     0.0000E+00                     0.0000E+00                     0.0000E+00                     0.0000E+00                     0.0000E+00                     0.0000E+00                     0.0000E+00                     0.0000E+00                     0.0000E+00                     0.0000E+00                     0.0000E+00                     0.0000E+00                     0.0000E+00
    0.3125                    -8.0051E-02                     5.0978E+05                     1.1486E+00                     5.2542E+07                     1.6645E+02                    -1.1412E+07                    -3.8402E+01                     1.7760E+05                     6.0048E+03                     3.3085E+05                     6.0042E+03                     8.1713E-02                     1.7641E+04                     9.7507E-01                    -1.7641E+04                    -7.3694E+04                     2.5717E+05                    -2.3347E+04                     2.5716E+05                     7.5643E-01                    -2.0161E+05                     7.0334E+00                     2.0162E+05                    -9.1757E+05                     3.9576E+05                    -3.4067E+06                     3.9576E+05                     6.1665E-02                    -2.3367E+03                     4.9710E-01                     2.3380E+03                     1.7760E+05                     6.0048E+03                     3.3085E+05                     6.0042E+03                     8.1713E-02                     1.7641E+04                     9.7507E-01                    -1.7641E+04                    -7.3694E+04                     2.5717E+05                    -2.3347E+04                     2.5716E+05                     7.5643E-01                    -2.0161E+05                     7.0334E+00                     2.0162E+05                    -9.1757E+05                     3.9576E+05                    -3.4067E+06                     3.9576E+05                     6.1665E-02                    -2.3367E+03                     4.9710E-01                     2.3380E+03                     0.0000E+00                     0.0000E+00                     0.0000E+00                     0.0000E+00                     0.0000E+00                     0.0000E+00                     0.0000E+00                     0.0000E+00                     0.0000E+00                     0.0000E+00                     0.0000E+00                     0.0000E+00                     0.0000E+00                     0.0000E+00                     0.0000E+00                     0.0000E+00                     0.0000E+00                     0.0000E+00                     0.0000E+00                     0.0000E+00                     0.0000E+00                     0.0000E+00                     0.0000E+00                     0.0000E+00
    0.3250                    -7.5245E-02                     5.3809E+05                     1.1840E+00                     5.2535E+07                     1.6698E+02                    -1.1727E+07                    -3.8231E+01                     1.7616E+05                     1.6611E+04                     3.3930E+05                     1.6610E+04                     8.0039E-02                     1.7336E+04                     9.7899E-01                    -1.7336E+04                    -7.3818E+04                     2.5485E+05                    -2.5515E+04                     2.5485E+05                     7.4226E-01                    -2.0760E+05                     7.1315E+00                     2.0761E+05                    -9.0873E+05                     2.7308E+05                    -3.4864E+06                     2.7308E+05                     6.1978E-02                    -2.2962E+03                     4.9569E-01                     2.2975E+03                     1.7616E+05                     1.6611E+04                     3.3930E+05                     1.6610E+04                     8.0039E-02                     1.7336E+04                     9.7899E-01                    -1.7336E+04                    -7.3818E+04                     2.5485E+05                    -2.5515E+04                     2.5485E+05                     7.4226E-01                    -2.0760E+05                     7.1315E+00                     2.0761E+05                    -9.0873E+05                     2.7308E+05                    -3.4864E+06                     2.7308E+05                     6.1978E-02                    -2.2962E+03                     4.9569E-01                     2.2975E+03                     0.0000E+00                     0.0000E+00                     0.0000E+00                     0.0000E+00                     0.0000E+00                     0.0000E+00                     0.0000E+00                     0.0000E+00                     0.0000E+00                     0.0000E+00                     0.0000E+00                     0.0000E+00                     0.0000E+00                     0.0000E+00                     0.0000E+00                     0.0000E+00                     0.0000E+00                     0.0000E+00                     0.0000E+00                     0.0000E+00                     0.0000E+00                     0.0000E+00                     0.0000E+00                     0.0000E+00
    0.3375                    -7.0440E-02                     5.6639E+05                     1.2195E+00                     5.2529E+07                     1.6672E+02                    -1.2042E+07                    -3.8061E+01                     1.7472E+05                     2.7217E+04                     3.4776E+05                     2.7216E+04                     7.8365E-02                     1.7031E+04                     9.8291E-01                    -1.7030E+04                    -7.3942E+04                     2.5254E+05                    -2.7683E+04                     2.5253E+05                     7.2808E-01                    -2.1359E+05                     7.2295E+00                     2.1360E+05                    -8.9989E+05                     1.5041E+05                    -3.5661E+06                     1.5041E+05                     6.2291E-02                    -2.2557E+03                     4.9428E-01                     2.2571E+03                     1.7472E+05                     2.7217E+04                     3.4776E+05                     2.7216E+04                     7.8365E-02                     1.7031E+04                     9.8291E-01                    -1.7030E+04                    -7.3942E+04                     2.5254E+05                    -2.7683E+04                     2.5253E+05                     7.2808E-01                    -2.1359E+05                     7.2295E+00                     2.1360E+05                    -8.9989E+05                     1.5041E+05                    -3.5661E+06                     1.5041E+05                     6.2291E-02                    -2.2557E+03                     4.9428E-01                     2.2571E+03                     0.0000E+00                     0.0000E+00                     0.0000E+00                     0.0000E+00                     0.0000E+00                     0.0000E+00                     0.0000E+00                     0.0000E+00                     0.0000E+00                     0.0000E+00                     0.0000E+00                     0.0000E+00                     0.0000E+00                     0.0000E+00                     0.0000E+00                     0.0000E+00                     0.0000E+00                     0.0000E+00                     0.0000E+00                     0.0000E+00                     0.0000E+00                     0.0000E+00                     0.0000E+00                     0.0000E+00
    0.3500                    -6.5635E-02                     5.9469E+05                     1.2530E+00                     5.2522E+07                     1.6687E+02                    -1.2357E+07                    -3.8113E+01                     1.7328E+05                     3.7822E+04                     3.5621E+05                     3.7822E+04                     7.6692E-02                     1.6725E+04                     9.8683E-01                    -1.6725E+04                    -7.4066E+04                     2.5022E+05                    -2.9851E+04                     2.5022E+05                     7.1390E-01                    -2.1957E+05                     7.3275E+00                     2.1959E+05                    -8.9105E+05                     2.7734E+04                    -3.6458E+06                     2.7734E+04                     6.2604E-02                    -2.2153E+03                     4.9287E-01                     2.2166E+03                     1.7328E+05                     3.7822E+04                     3.5621E+05                     3.7822E+04                     7.6692E-02                     1.6725E+04                     9.8683E-01                    -1.6725E+04                    -7.4066E+04                     2.5022E+05                    -2.9851E+04                     2.5022E+05                     7.1390E-01                    -2.1957E+05                     7.3275E+00                     2.1959E+05                    -8.9105E+05                     2.7734E+04                    -3.6458E+06                     2.7734E+04                     6.2604E-02                    -2.2153E+03                     4.9287E-01                     2.2166E+03                     0.0000E+00                     0.0000E+00                     0.0000E+00                     0.0000E+00                     0.0000E+00                     0.0000E+00                     0.0000E+00                     0.0000E+00                     0.0000E+00                     0.0000E+00                     0.0000E+00                     0.0000E+00                     0.0000E+00                     0.0000E+00                     0.0000E+00                     0.0000E+00                     0.0000E+00                     0.0000E+00                     0.0000E+00                     0.0000E+00                     0.0000E+00                     0.0000E+00                     0.0000E+00                     0.0000E+00
    0.3625                    -6.0829E-02                     6.2299E+05                     1.2884E+00                     5.2515E+07                     1.6702E+02                    -1.2672E+07                    -3.7943E+01                     1.7184E+05                     4.8428E+04                     3.6466E+05                     4.8428E+04                     7.5018E-02                     1.6420E+04                     9.9075E-01                    -1.6420E+04                    -7.4190E+04                     2.4791E+05                    -3.2020E+04                     2.4790E+05                     6.9973E-01                    -2.2556E+05                     7.4256E+00                     2.2557E+05                    -8.8221E+05                    -9.4941E+04                    -3.7255E+06                    -9.4941E+04                     6.2917E-02                    -2.1748E+03                     4.9146E-01                     2.1762E+03                     1.7184E+05                     4.8428E+04                     3.6466E+05                     4.8428E+04                     7.5018E-02                     1.6420E+04                     9.9075E-01                    -1.6420E+04                    -7.4190E+04                     2.4791E+05                    -3.2020E+04                     2.4790E+05                     6.9973E-01                    -2.2556E+05                     7.4256E+00                     2.2557E+05                    -8.8221E+05                    -9.4941E+04                    -3.7255E+06                    -9.4941E+04                     6.2917E-02                    -2.1748E+03                     4.9146E-01                     2.1762E+03                     0.0000E+00                     0.0000E+00                     0.0000E+00                     0.0000E+00                     0.0000E+00                     0.0000E+00                     0.0000E+00                     0.0000E+00                     0.0000E+00                     0.0000E+00                     0.0000E+00                     0.0000E+00                     0.0000E+00                     0.0000E+00                     0.0000E+00                     0.0000E+00                     0.0000E+00                     0.0000E+00                     0.0000E+00                     0.0000E+00                     0.0000E+00                     0.0000E+00                     0.0000E+00                     0.0000E+00
[...]
    1.1500                     8.0916E-02                     1.8891E+06                     3.4490E+00                     5.2070E+07                     1.6474E+02                    -2.4963E+07                    -4.6584E+01                    -3.4735E+03                     5.9320E+05                     7.1068E+05                     5.9320E+05                    -1.3921E-02                    -3.6539E+04                     1.1152E+00                     3.6542E+04                    -7.6629E+04                     7.2267E+04                    -1.2714E+05                     7.2263E+04                    -1.4202E-01                    -6.6018E+05                     1.2719E+01                     6.6023E+05                     7.3626E+04                    -6.0684E+06                    -7.2561E+06                    -6.0684E+06                     7.6674E-02                     4.8419E+03                     3.9371E-01                    -4.8406E+03                    -3.4735E+03                     5.9320E+05                     7.1068E+05                     5.9320E+05                    -1.3921E-02                    -3.6539E+04                     1.1152E+00                     3.6542E+04                    -7.6629E+04                     7.2267E+04                    -1.2714E+05                     7.2263E+04                    -1.4202E-01                    -6.6018E+05                     1.2719E+01                     6.6023E+05                     7.3626E+04                    -6.0684E+06                    -7.2561E+06                    -6.0684E+06                     7.6674E-02                     4.8419E+03                     3.9371E-01                    -4.8406E+03                     0.0000E+00                     0.0000E+00                     0.0000E+00                     0.0000E+00                     0.0000E+00                     0.0000E+00                     0.0000E+00                     0.0000E+00                     0.0000E+00                     0.0000E+00                     0.0000E+00                     0.0000E+00                     0.0000E+00                     0.0000E+00                     0.0000E+00                     0.0000E+00                     0.0000E+00                     0.0000E+00                     0.0000E+00                     0.0000E+00                     0.0000E+00                     0.0000E+00                     0.0000E+00                     0.0000E+00
    1.1625                     8.0648E-02                     1.9015E+06                     3.4799E+00                     5.2063E+07                     1.6426E+02                    -2.5056E+07                    -4.6161E+01                    -6.9162E+03                     5.9973E+05                     7.1334E+05                     5.9973E+05                    -1.5033E-02                    -3.7685E+04                     1.1161E+00                     3.7687E+04                    -7.6609E+04                     6.9376E+04                    -1.2806E+05                     6.9372E+04                    -1.5401E-01                    -6.6697E+05                     1.2793E+01                     6.6702E+05                     9.1477E+04                    -6.1360E+06                    -7.2886E+06                    -6.1360E+06                     7.6789E-02                     4.9936E+03                     3.9210E-01                    -4.9924E+03                    -6.9162E+03                     5.9973E+05                     7.1334E+05                     5.9973E+05                    -1.5033E-02                    -3.7685E+04                     1.1161E+00                     3.7687E+04                    -7.6609E+04                     6.9376E+04                    -1.2806E+05                     6.9372E+04                    -1.5401E-01                    -6.6697E+05                     1.2793E+01                     6.6702E+05                     9.1477E+04                    -6.1360E+06                    -7.2886E+06                    -6.1360E+06                     7.6789E-02                     4.9936E+03                     3.9210E-01                    -4.9924E+03                     0.0000E+00                     0.0000E+00                     0.0000E+00                     0.0000E+00                     0.0000E+00                     0.0000E+00                     0.0000E+00                     0.0000E+00                     0.0000E+00                     0.0000E+00                     0.0000E+00                     0.0000E+00                     0.0000E+00                     0.0000E+00                     0.0000E+00                     0.0000E+00                     0.0000E+00                     0.0000E+00                     0.0000E+00                     0.0000E+00                     0.0000E+00                     0.0000E+00                     0.0000E+00                     0.0000E+00
    1.1750                     8.0380E-02                     1.9139E+06                     3.5148E+00                     5.2056E+07                     1.6412E+02                    -2.5149E+07                    -4.5683E+01                    -1.0359E+04                     6.0627E+05                     7.1600E+05                     6.0627E+05                    -1.6145E-02                    -3.8830E+04                     1.1169E+00                     3.8833E+04                    -7.6590E+04                     6.6485E+04                    -1.2897E+05                     6.6481E+04                    -1.6599E-01                    -6.7376E+05                     1.2867E+01                     6.7381E+05                     1.0933E+05                    -6.2036E+06                    -7.3211E+06                    -6.2036E+06                     7.6904E-02                     5.1454E+03                     3.9049E-01                    -5.1441E+03                    -1.0359E+04                     6.0627E+05                     7.1600E+05                     6.0627E+05                    -1.6145E-02                    -3.8830E+04                     1.1169E+00                     3.8833E+04                    -7.6590E+04                     6.6485E+04                    -1.2897E+05                     6.6481E+04                    -1.6599E-01                    -6.7376E+05                     1.2867E+01                     6.7381E+05                     1.0933E+05                    -6.2036E+06                    -7.3211E+06                    -6.2036E+06                     7.6904E-02                     5.1454E+03                     3.9049E-01                    -5.1441E+03                     0.0000E+00                     0.0000E+00                     0.0000E+00                     0.0000E+00                     0.0000E+00                     0.0000E+00                     0.0000E+00                     0.0000E+00                     0.0000E+00                     0.0000E+00                     0.0000E+00                     0.0000E+00                     0.0000E+00                     0.0000E+00                     0.0000E+00                     0.0000E+00                     0.0000E+00                     0.0000E+00                     0.0000E+00                     0.0000E+00                     0.0000E+00                     0.0000E+00                     0.0000E+00                     0.0000E+00
    1.1875                     8.0113E-02                     1.9263E+06                     3.5419E+00                     5.2050E+07                     1.6399E+02                    -2.5243E+07                    -4.5316E+01                    -1.3802E+04                     6.1281E+05                     7.1867E+05                     6.1280E+05                    -1.7258E-02                    -3.9976E+04                     1.1177E+00                     3.9978E+04                    -7.6571E+04                     6.3594E+04                    -1.2989E+05                     6.3589E+04                    -1.7798E-01                    -6.8055E+05                     1.2941E+01                     6.8060E+05                     1.2718E+05                    -6.2712E+06                    -7.3536E+06                    -6.2712E+06                     7.7019E-02                     5.2971E+03                     3.8888E-01                    -5.2959E+03                    -1.3802E+04                     6.1281E+05                     7.1867E+05                     6.1280E+05                    -1.7258E-02                    -3.9976E+04                     1.1177E+00                     3.9978E+04                    -7.6571E+04                     6.3594E+04                    -1.2989E+05                     6.3589E+04                    -1.7798E-01                    -6.8055E+05                     1.2941E+01                     6.8060E+05                     1.2718E+05                    -6.2712E+06                    -7.3536E+06                    -6.2712E+06                     7.7019E-02                     5.2971E+03                     3.8888E-01                    -5.2959E+03                     0.0000E+00                     0.0000E+00                     0.0000E+00                     0.0000E+00                     0.0000E+00                     0.0000E+00                     0.0000E+00                     0.0000E+00                     0.0000E+00                     0.0000E+00                     0.0000E+00                     0.0000E+00                     0.0000E+00                     0.0000E+00                     0.0000E+00                     0.0000E+00                     0.0000E+00                     0.0000E+00                     0.0000E+00                     0.0000E+00                     0.0000E+00                     0.0000E+00                     0.0000E+00                     0.0000E+00
    1.2000                     7.9845E-02                     1.9387E+06                     3.5768E+00                     5.2043E+07                     1.6375E+02                    -2.5336E+07                    -4.6400E+01                    -1.7244E+04                     6.1934E+05                     7.2133E+05                     6.1934E+05                    -1.8370E-02                    -4.1121E+04                     1.1186E+00                     4.1123E+04                    -7.6551E+04                     6.0702E+04                    -1.3081E+05                     6.0698E+04                    -1.8997E-01                    -6.8735E+05                     1.3015E+01                     6.8739E+05                     1.4503E+05                    -6.3388E+06                    -7.3861E+06                    -6.3388E+06                     7.7134E-02                     5.4489E+03                     3.8728E-01                    -5.4477E+03                    -1.7244E+04                     6.1934E+05                     7.2133E+05                     6.1934E+05                    -1.8370E-02                    -4.1121E+04                     1.1186E+00                     4.1123E+04                    -7.6551E+04                     6.0702E+04                    -1.3081E+05                     6.0698E+04                    -1.8997E-01                    -6.8735E+05                     1.3015E+01                     6.8739E+05                     1.4503E+05                    -6.3388E+06                    -7.3861E+06                    -6.3388E+06                     7.7134E-02                     5.4489E+03                     3.8728E-01                    -5.4477E+03                     0.0000E+00                     0.0000E+00                     0.0000E+00                     0.0000E+00                     0.0000E+00                     0.0000E+00                     0.0000E+00                     0.0000E+00                     0.0000E+00                     0.0000E+00                     0.0000E+00                     0.0000E+00                     0.0000E+00                     0.0000E+00                     0.0000E+00                     0.0000E+00                     0.0000E+00                     0.0000E+00                     0.0000E+00                     0.0000E+00                     0.0000E+00                     0.0000E+00                     0.0000E+00                     0.0000E+00
    1.2125                     7.7917E-02                     1.9458E+06                     3.6075E+00                     5.2037E+07                     1.6395E+02                    -2.5369E+07                    -4.7530E+01                    -2.0707E+04                     6.2419E+05                     7.2212E+05                     6.2418E+05                    -1.9274E-02                    -4.2306E+04                     1.1190E+00                     4.2308E+04                    -7.6503E+04                     5.7946E+04                    -1.3137E+05                     5.7942E+04                    -2.0074E-01                    -6.9321E+05                     1.3084E+01                     6.9325E+05                     1.6246E+05                    -6.3870E+06                    -7.4021E+06                    -6.3870E+06                     7.7169E-02                     5.6059E+03                     3.8566E-01                    -5.6046E+03                    -2.0707E+04                     6.2419E+05                     7.2212E+05                     6.2418E+05                    -1.9274E-02                    -4.2306E+04                     1.1190E+00                     4.2308E+04                    -7.6503E+04                     5.7946E+04                    -1.3137E+05                     5.7942E+04                    -2.0074E-01                    -6.9321E+05                     1.3084E+01                     6.9325E+05                     1.6246E+05                    -6.3870E+06                    -7.4021E+06                    -6.3870E+06                     7.7169E-02                     5.6059E+03                     3.8566E-01                    -5.6046E+03                     0.0000E+00                     0.0000E+00                     0.0000E+00                     0.0000E+00                     0.0000E+00                     0.0000E+00                     0.0000E+00                     0.0000E+00                     0.0000E+00                     0.0000E+00                     0.0000E+00                     0.0000E+00                     0.0000E+00                     0.0000E+00                     0.0000E+00                     0.0000E+00                     0.0000E+00                     0.0000E+00                     0.0000E+00                     0.0000E+00                     0.0000E+00                     0.0000E+00                     0.0000E+00                     0.0000E+00
    1.2250                     7.5990E-02                     1.9530E+06                     3.6422E+00                     5.2031E+07                     1.6399E+02                    -2.5401E+07                    -4.7041E+01                    -2.4170E+04                     6.2903E+05                     7.2290E+05                     6.2903E+05                    -2.0177E-02                    -4.3491E+04                     1.1195E+00                     4.3493E+04                    -7.6454E+04                     5.5190E+04                    -1.3194E+05                     5.5186E+04                    -2.1152E-01                    -6.9908E+05                     1.3153E+01                     6.9912E+05                     1.7988E+05                    -6.4352E+06                    -7.4181E+06                    -6.4352E+06                     7.7204E-02                     5.7629E+03                     3.8404E-01                    -5.7616E+03                    -2.4170E+04                     6.2903E+05                     7.2290E+05                     6.2903E+05                    -2.0177E-02                    -4.3491E+04                     1.1195E+00                     4.3493E+04                    -7.6454E+04                     5.5190E+04                    -1.3194E+05                     5.5186E+04                    -2.1152E-01                    -6.9908E+05                     1.3153E+01                     6.9912E+05                     1.7988E+05                    -6.4352E+06                    -7.4181E+06                    -6.4352E+06                     7.7204E-02                     5.7629E+03                     3.8404E-01                    -5.7616E+03                     0.0000E+00                     0.0000E+00                     0.0000E+00                     0.0000E+00                     0.0000E+00                     0.0000E+00                     0.0000E+00                     0.0000E+00                     0.0000E+00                     0.0000E+00                     0.0000E+00                     0.0000E+00                     0.0000E+00                     0.0000E+00                     0.0000E+00                     0.0000E+00                     0.0000E+00                     0.0000E+00                     0.0000E+00                     0.0000E+00                     0.0000E+00                     0.0000E+00                     0.0000E+00                     0.0000E+00
    1.2375                     7.4062E-02                     1.9601E+06                     3.6769E+00                     5.2025E+07                     1.6403E+02                    -2.5434E+07                    -4.4989E+01                    -2.7634E+04                     6.3387E+05                     7.2368E+05                     6.3387E+05                    -2.1081E-02                    -4.4675E+04                     1.1199E+00                     4.4678E+04                    -7.6406E+04                     5.2434E+04                    -1.3251E+05                     5.2430E+04                    -2.2230E-01                    -7.0494E+05                     1.3221E+01                     7.0499E+05                     1.9731E+05                    -6.4834E+06                    -7.4341E+06                    -6.4834E+06                     7.7239E-02                     5.9198E+03                     3.8242E-01                    -5.9186E+03                    -2.7634E+04                     6.3387E+05                     7.2368E+05                     6.3387E+05                    -2.1081E-02                    -4.4675E+04                     1.1199E+00                     4.4678E+04                    -7.6406E+04                     5.2434E+04                    -1.3251E+05                     5.2430E+04                    -2.2230E-01                    -7.0494E+05                     1.3221E+01                     7.0499E+05                     1.9731E+05                    -6.4834E+06                    -7.4341E+06                    -6.4834E+06                     7.7239E-02                     5.9198E+03                     3.8242E-01                    -5.9186E+03                     0.0000E+00                     0.0000E+00                     0.0000E+00                     0.0000E+00                     0.0000E+00                     0.0000E+00                     0.0000E+00                     0.0000E+00                     0.0000E+00                     0.0000E+00                     0.0000E+00                     0.0000E+00                     0.0000E+00                     0.0000E+00                     0.0000E+00                     0.0000E+00                     0.0000E+00                     0.0000E+00                     0.0000E+00                     0.0000E+00                     0.0000E+00                     0.0000E+00                     0.0000E+00                     0.0000E+00
