
This summary information was generated by ElastoDyn on 16-Jul-2020 at 09:28:54.


Turbine features:

            Upwind, three-bladed rotor with rigid hub.
            The model has 0 of 24 DOFs active (enabled) at start-up.
 Disabled   Platform horizontal surge translation DOF 
 Disabled   Platform horizontal sway translation DOF 
 Disabled   Platform vertical heave translation DOF 
 Disabled   Platform roll tilt rotation DOF 
 Disabled   Platform pitch tilt rotation DOF 
 Disabled   Platform yaw rotation DOF 
 Disabled   1st tower fore-aft bending mode DOF 
 Disabled   1st tower side-to-side bending mode DOF 
 Disabled   2nd tower fore-aft bending mode DOF 
 Disabled   2nd tower side-to-side bending mode DOF 
 Disabled   Nacelle yaw DOF 
 Disabled   Rotor-furl DOF 
 Disabled   Variable speed generator DOF 
 Disabled   Drivetrain rotational-flexibility DOF 
 Disabled   Tail-furl DOF 
 Disabled   1st flapwise bending-mode DOF of blade 1 
 Disabled   1st edgewise bending-mode DOF of blade 1 
 Disabled   2nd flapwise bending-mode DOF of blade 1 
 Disabled   1st flapwise bending-mode DOF of blade 2 
 Disabled   1st edgewise bending-mode DOF of blade 2 
 Disabled   2nd flapwise bending-mode DOF of blade 2 
 Disabled   1st flapwise bending-mode DOF of blade 3 
 Disabled   1st edgewise bending-mode DOF of blade 3 
 Disabled   2nd flapwise bending-mode DOF of blade 3 


Time steps:

    Structural            (s)        0.10000000


Some calculated parameters:

    Hub-Height            (m)           200.000
    Flexible Tower Length (m)           200.000
    Flexible Blade Length (m)           100.000


Rotor mass properties:

    Rotor Mass            (kg)          300.000
    Rotor Inertia         (kg-m^2)   999134.951
                                        Blade 1      Blade 2      Blade 3
                                        -------      -------      -------
    Mass                  (kg)          100.000      100.000      100.000
    Second Mass Moment    (kg-m^2)   333043.984   333043.984   333043.984
    First Mass Moment     (kg-m)       4999.990     4999.990     4999.990
    Center of Mass        (m)            50.000       50.000       50.000


Additional mass properties:

    Tower-top Mass        (kg)          300.000
    Tower Mass            (kg)      1200000.000
    Platform Mass         (kg)            0.000
    Mass Incl. Platform   (kg)      1200300.000


Interpolated tower properties:

Node  TwFract   HNodes  DHNodes  TMassDen    FAStiff    SSStiff
 (-)      (-)      (m)      (m)    (kg/m)     (Nm^2)     (Nm^2)
   1    0.025    5.000   10.000  6000.000  6.000E+11  6.000E+11
   2    0.075   15.000   10.000  6000.000  6.000E+11  6.000E+11
   3    0.125   25.000   10.000  6000.000  6.000E+11  6.000E+11
   4    0.175   35.000   10.000  6000.000  6.000E+11  6.000E+11
   5    0.225   45.000   10.000  6000.000  6.000E+11  6.000E+11
   6    0.275   55.000   10.000  6000.000  6.000E+11  6.000E+11
   7    0.325   65.000   10.000  6000.000  6.000E+11  6.000E+11
   8    0.375   75.000   10.000  6000.000  6.000E+11  6.000E+11
   9    0.425   85.000   10.000  6000.000  6.000E+11  6.000E+11
  10    0.475   95.000   10.000  6000.000  6.000E+11  6.000E+11
  11    0.525  105.000   10.000  6000.000  6.000E+11  6.000E+11
  12    0.575  115.000   10.000  6000.000  6.000E+11  6.000E+11
  13    0.625  125.000   10.000  6000.000  6.000E+11  6.000E+11
  14    0.675  135.000   10.000  6000.000  6.000E+11  6.000E+11
  15    0.725  145.000   10.000  6000.000  6.000E+11  6.000E+11
  16    0.775  155.000   10.000  6000.000  6.000E+11  6.000E+11
  17    0.825  165.000   10.000  6000.000  6.000E+11  6.000E+11
  18    0.875  175.000   10.000  6000.000  6.000E+11  6.000E+11
  19    0.925  185.000   10.000  6000.000  6.000E+11  6.000E+11
  20    0.975  195.000   10.000  6000.000  6.000E+11  6.000E+11


Interpolated blade 1 properties:

Node  BlFract   RNodes  DRNodes PitchAxis  StrcTwst  BMassDen    FlpStff    EdgStff
 (-)      (-)      (m)      (m)       (-)     (deg)    (kg/m)     (Nm^2)     (Nm^2)
   1    0.029    2.941    5.882     0.000     0.000     1.000  1.000E+06  1.000E+06
   2    0.088    8.824    5.882     0.000     0.000     1.000  1.000E+06  1.000E+06
   3    0.147   14.706    5.882     0.000     0.000     1.000  1.000E+06  1.000E+06
   4    0.206   20.588    5.882     0.000     0.000     1.000  1.000E+06  1.000E+06
   5    0.265   26.471    5.882     0.000     0.000     1.000  1.000E+06  1.000E+06
   6    0.324   32.353    5.882     0.000     0.000     1.000  1.000E+06  1.000E+06
   7    0.382   38.235    5.882     0.000     0.000     1.000  1.000E+06  1.000E+06
   8    0.441   44.118    5.882     0.000     0.000     1.000  1.000E+06  1.000E+06
   9    0.500   50.000    5.882     0.000     0.000     1.000  1.000E+06  1.000E+06
  10    0.559   55.882    5.882     0.000     0.000     1.000  1.000E+06  1.000E+06
  11    0.618   61.765    5.882     0.000     0.000     1.000  1.000E+06  1.000E+06
  12    0.676   67.647    5.882     0.000     0.000     1.000  1.000E+06  1.000E+06
  13    0.735   73.529    5.882     0.000     0.000     1.000  1.000E+06  1.000E+06
  14    0.794   79.412    5.882     0.000     0.000     1.000  1.000E+06  1.000E+06
  15    0.853   85.294    5.882     0.000     0.000     1.000  1.000E+06  1.000E+06
  16    0.912   91.176    5.882     0.000     0.000     1.000  1.000E+06  1.000E+06
  17    0.971   97.059    5.882     0.000     0.000     1.000  1.000E+06  1.000E+06


Interpolated blade 2 properties:

Node  BlFract   RNodes  DRNodes PitchAxis  StrcTwst  BMassDen    FlpStff    EdgStff
 (-)      (-)      (m)      (m)       (-)     (deg)    (kg/m)     (Nm^2)     (Nm^2)
   1    0.029    2.941    5.882     0.000     0.000     1.000  1.000E+06  1.000E+06
   2    0.088    8.824    5.882     0.000     0.000     1.000  1.000E+06  1.000E+06
   3    0.147   14.706    5.882     0.000     0.000     1.000  1.000E+06  1.000E+06
   4    0.206   20.588    5.882     0.000     0.000     1.000  1.000E+06  1.000E+06
   5    0.265   26.471    5.882     0.000     0.000     1.000  1.000E+06  1.000E+06
   6    0.324   32.353    5.882     0.000     0.000     1.000  1.000E+06  1.000E+06
   7    0.382   38.235    5.882     0.000     0.000     1.000  1.000E+06  1.000E+06
   8    0.441   44.118    5.882     0.000     0.000     1.000  1.000E+06  1.000E+06
   9    0.500   50.000    5.882     0.000     0.000     1.000  1.000E+06  1.000E+06
  10    0.559   55.882    5.882     0.000     0.000     1.000  1.000E+06  1.000E+06
  11    0.618   61.765    5.882     0.000     0.000     1.000  1.000E+06  1.000E+06
  12    0.676   67.647    5.882     0.000     0.000     1.000  1.000E+06  1.000E+06
  13    0.735   73.529    5.882     0.000     0.000     1.000  1.000E+06  1.000E+06
  14    0.794   79.412    5.882     0.000     0.000     1.000  1.000E+06  1.000E+06
  15    0.853   85.294    5.882     0.000     0.000     1.000  1.000E+06  1.000E+06
  16    0.912   91.176    5.882     0.000     0.000     1.000  1.000E+06  1.000E+06
  17    0.971   97.059    5.882     0.000     0.000     1.000  1.000E+06  1.000E+06


Interpolated blade 3 properties:

Node  BlFract   RNodes  DRNodes PitchAxis  StrcTwst  BMassDen    FlpStff    EdgStff
 (-)      (-)      (m)      (m)       (-)     (deg)    (kg/m)     (Nm^2)     (Nm^2)
   1    0.029    2.941    5.882     0.000     0.000     1.000  1.000E+06  1.000E+06
   2    0.088    8.824    5.882     0.000     0.000     1.000  1.000E+06  1.000E+06
   3    0.147   14.706    5.882     0.000     0.000     1.000  1.000E+06  1.000E+06
   4    0.206   20.588    5.882     0.000     0.000     1.000  1.000E+06  1.000E+06
   5    0.265   26.471    5.882     0.000     0.000     1.000  1.000E+06  1.000E+06
   6    0.324   32.353    5.882     0.000     0.000     1.000  1.000E+06  1.000E+06
   7    0.382   38.235    5.882     0.000     0.000     1.000  1.000E+06  1.000E+06
   8    0.441   44.118    5.882     0.000     0.000     1.000  1.000E+06  1.000E+06
   9    0.500   50.000    5.882     0.000     0.000     1.000  1.000E+06  1.000E+06
  10    0.559   55.882    5.882     0.000     0.000     1.000  1.000E+06  1.000E+06
  11    0.618   61.765    5.882     0.000     0.000     1.000  1.000E+06  1.000E+06
  12    0.676   67.647    5.882     0.000     0.000     1.000  1.000E+06  1.000E+06
  13    0.735   73.529    5.882     0.000     0.000     1.000  1.000E+06  1.000E+06
  14    0.794   79.412    5.882     0.000     0.000     1.000  1.000E+06  1.000E+06
  15    0.853   85.294    5.882     0.000     0.000     1.000  1.000E+06  1.000E+06
  16    0.912   91.176    5.882     0.000     0.000     1.000  1.000E+06  1.000E+06
  17    0.971   97.059    5.882     0.000     0.000     1.000  1.000E+06  1.000E+06


Requested Outputs:


 Col   Parameter            Units               
 ---   ---------------      ---------------     
   0   Time                 (s)                 
   1   OoPDefl1             (m)                 
   2   IPDefl1              (m)                 
   3   TwstDefl1            (deg)               
   4   BldPitch1            (deg)               
   5   Azimuth              (deg)               
   6   RotSpeed             (rpm)               
   7   GenSpeed             (rpm)               
   8   TTDspFA              (m)                 
   9   TTDspSS              (m)                 
  10   TTDspTwst            (deg)               
  11   Spn2MLxb1            (kN-m)              
  12   Spn2MLyb1            (kN-m)              
  13   RootFxb1             (kN)                
  14   RootFyb1             (kN)                
  15   RootFzb1             (kN)                
  16   RootMxb1             (kN-m)              
  17   RootMyb1             (kN-m)              
  18   RootMzb1             (kN-m)              
  19   RotTorq              (kN-m)              
  20   LSSGagMya            (kN-m)              
  21   LSSGagMza            (kN-m)              
  22   YawBrFxp             (kN)                
  23   YawBrFyp             (kN)                
  24   YawBrFzp             (kN)                
  25   YawBrMxp             (kN-m)              
  26   YawBrMyp             (kN-m)              
  27   YawBrMzp             (kN-m)              
  28   TwrBsFxt             (kN)                
  29   TwrBsFyt             (kN)                
  30   TwrBsFzt             (kN)                
  31   TwrBsMxt             (kN-m)              
  32   TwrBsMyt             (kN-m)              
  33   TwrBsMzt             (kN-m)              


  Requested Output Channels at each blade station:
 Col   Parameter            Units               
 ---   ---------------      ---------------     
