
 **************************************************************************************************
 OpenFAST

 Copyright (C) 2021 National Renewable Energy Laboratory
 Copyright (C) 2021 Envision Energy USA LTD

 This program is licensed under Apache License Version 2.0 and comes with ABSOLUTELY NO WARRANTY.
 See the "LICENSE" file distributed with this software for details.
 **************************************************************************************************

 OpenFAST-v2.4.0-138-g9a6c1967
 Compile Info:
  - Compiler: Intel(R) Fortran Intel(R) 64 Compiler Classic for applications running on Intel(R)
  64, Version 2021.1.2 Build 20201208_000000
  - Architecture: 64 bit
  - Precision: double
  - Date: Jan 12 2021
  - Time: 13:31:16
 Execution Info:
  - Date: 01/12/2021
  - Time: 14:15:46-0600

 OpenFAST input file heading:
     Helical wake test case for OLAF free wake vortex in AD15

 Running ElastoDyn.
 Nodal outputs section of ElastoDyn input file not found or improperly formatted.
 Running AeroDyn.
 Nodal output section of AeroDyn input file not found or improperly formatted.
 Running FVW.
  - Directory:         /home/rmudafor/openfast_intelrtest/reg_tests
  - RootName:          ../build/reg_tests/glue-codes/openfast/HelicalWake_OLAF/HelicalWake_OLAF.
  - No OpenMP support
 Running InflowWind.

 FAST_InitializeAll:InitModuleMappings:ED_2_AD_BladeMotion(1):MeshMapCreate:CreateMotionMap_L2_to_L
 2:CreateMapping_ProjectToLine2:Found close value for node 51. (9.99253E-05 m)
 InitModuleMappings:ED_2_AD_BladeMotion(2):MeshMapCreate:CreateMotionMap_L2_to_L2:CreateMapping_Pro
 jectToLine2:Found close value for node 51. (9.99253E-05 m)
 InitModuleMappings:ED_2_AD_BladeMotion(3):MeshMapCreate:CreateMotionMap_L2_to_L2:CreateMapping_Pro
 jectToLine2:Found close value for node 51. (9.99253E-05 m)

  Time: 0 of 70 seconds.
+                                                                                                  
+ Time: 2 of 70 seconds.  Estimated final completion at 14:16:13.
+                                                                                                  
+ Time: 4 of 70 seconds.  Estimated final completion at 14:16:24.
+                                                                                                  
+ Time: 6 of 70 seconds.  Estimated final completion at 14:16:37.
+                                                                                                  
+ Time: 8 of 70 seconds.  Estimated final completion at 14:16:34.
+                                                                                                  
+ Time: 10 of 70 seconds.  Estimated final completion at 14:16:37.
+                                                                                                  
+ Time: 12 of 70 seconds.  Estimated final completion at 14:16:38.
+                                                                                                  
+ Time: 14 of 70 seconds.  Estimated final completion at 14:16:37.
+                                                                                                  
+ Time: 16 of 70 seconds.  Estimated final completion at 14:16:41.
+                                                                                                  
+ Time: 18 of 70 seconds.  Estimated final completion at 14:16:38.
+                                                                                                  
+ Time: 20 of 70 seconds.  Estimated final completion at 14:16:39.
+                                                                                                  
+ Time: 22 of 70 seconds.  Estimated final completion at 14:16:42.
+                                                                                                  
+ Time: 24 of 70 seconds.  Estimated final completion at 14:16:40.
+                                                                                                  
+ Time: 26 of 70 seconds.  Estimated final completion at 14:16:41.
+                                                                                                  
+ Time: 28 of 70 seconds.  Estimated final completion at 14:16:38.
+                                                                                                  
+ Time: 30 of 70 seconds.  Estimated final completion at 14:16:39.
+                                                                                                  
+ Time: 32 of 70 seconds.  Estimated final completion at 14:16:39.
+                                                                                                  
+ Time: 34 of 70 seconds.  Estimated final completion at 14:16:42.
+                                                                                                  
+ Time: 36 of 70 seconds.  Estimated final completion at 14:16:40.
+                                                                                                  
+ Time: 38 of 70 seconds.  Estimated final completion at 14:16:39.
+                                                                                                  
+ Time: 40 of 70 seconds.  Estimated final completion at 14:16:40.
+                                                                                                  
+ Time: 42 of 70 seconds.  Estimated final completion at 14:16:41.
+                                                                                                  
+ Time: 44 of 70 seconds.  Estimated final completion at 14:16:41.
+                                                                                                  
+ Time: 46 of 70 seconds.  Estimated final completion at 14:16:40.
+                                                                                                  
+ Time: 48 of 70 seconds.  Estimated final completion at 14:16:40.
+                                                                                                  
+ Time: 50 of 70 seconds.  Estimated final completion at 14:16:41.
+                                                                                                  
+ Time: 52 of 70 seconds.  Estimated final completion at 14:16:40.
+                                                                                                  
+ Time: 54 of 70 seconds.  Estimated final completion at 14:16:41.
+                                                                                                  
+ Time: 56 of 70 seconds.  Estimated final completion at 14:16:40.
+                                                                                                  
+ Time: 58 of 70 seconds.  Estimated final completion at 14:16:41.
+                                                                                                  
+ Time: 60 of 70 seconds.  Estimated final completion at 14:16:41.
+                                                                                                  
+ Time: 62 of 70 seconds.  Estimated final completion at 14:16:41.
+                                                                                                  
+ Time: 64 of 70 seconds.  Estimated final completion at 14:16:41.
+                                                                                                  
+ Time: 66 of 70 seconds.  Estimated final completion at 14:16:42.
+                                                                                                  
+ Time: 68 of 70 seconds.  Estimated final completion at 14:16:42.
+                                                                                                  
+ Time: 70 of 70 seconds.  Estimated final completion at 14:16:42.
+                                                                                                  

  Total Real Time:       54.873 seconds
  Total CPU Time:        54.828 seconds
  Simulation CPU Time:   54.703 seconds
  Simulated Time:        70 seconds
  Time Ratio (Sim/CPU):  1.2796

  OpenFAST terminated normally.

