
This summary information was generated by AeroDyn on 15-Jun-2020 at 13:18:13.

======  General Options  ============================================================================
            3  WakeMod        - Type of wake/induction model: Free Vortex Wake Theory
            1  AFAeroMod      - Type of blade airfoil aerodynamics model: steady
            0  TwrPotent      - Type tower influence on wind based on potential flow around the tower: none
            F  TwrShadow      - Calculate tower influence on wind based on downstream tower shadow? No
            F  TwrAero        - Calculate tower aerodynamic loads? No
======  Outputs  ====================================================================================
            9  NBlOuts        - Number of blade nodes selected for output
           51  NumBlNds       - Number of blade nodes in the analysis
               Blade nodes selected for output:  Output node  Analysis node
                                                 -----------  -------------
                                                           1              1
                                                           2              7
                                                           3             11
                                                           4             20
                                                           5             29
                                                           6             36
                                                           7             41
                                                           8             45
                                                           9             50
            0  NTwOuts        - Number of tower nodes selected for output
               Requested Output Channels:
               Col   Parameter  Units
               ----  ---------  -----
                  0  Time       (s)       
                  1  RtTSR      (-)       
                  2  RtVAvgxh   (m/s)     
                  3  RtVAvgyh   (m/s)     
                  4  RtVAvgzh   (m/s)     
                  5  RtSkew     (deg)     
                  6  RtAeroFxh  (N)       
                  7  RtAeroFyh  (N)       
                  8  RtAeroFzh  (N)       
                  9  RtAeroMxh  (N-m)     
                 10  RtAeroMyh  (N-m)     
                 11  RtAeroMzh  (N-m)     
                 12  RtAeroPwr  (W)       
                 13  RtAeroCp   (-)       
                 14  RtAeroCq   (-)       
                 15  RtAeroCt   (-)       
                 16  B1N9Clrnc  INVALID   
                 17  B1N1Alpha  (deg)     
                 18  B1N1Cl     (-)       
                 19  B1N1Cd     (-)       
                 20  B1N1Cm     (-)       
                 21  B1N1Fl     (N/m)     
                 22  B1N1Fd     (N/m)     
                 23  B1N1Fn     (N/m)     
                 24  B1N1Ft     (N/m)     
                 25  B1N1Vrel   (m/s)     
                 26  B1N1AxInd  (-)       
                 27  B1N1TnInd  (-)       
                 28  B1N1Fx     (N/m)     
                 29  B1N1Fy     (N/m)     
                 30  B1N1Ft     (N/m)     
                 31  B1N1Fn     (N/m)     
                 32  B1N1Mm     (N-m/m)   
                 33  B1N2Alpha  (deg)     
                 34  B1N2Cl     (-)       
                 35  B1N2Cd     (-)       
                 36  B1N2Cm     (-)       
                 37  B1N2Fl     (N/m)     
                 38  B1N2Fd     (N/m)     
                 39  B1N2Fn     (N/m)     
                 40  B1N2Ft     (N/m)     
                 41  B1N2Vrel   (m/s)     
                 42  B1N2AxInd  (-)       
                 43  B1N2TnInd  (-)       
                 44  B1N2Fx     (N/m)     
                 45  B1N2Fy     (N/m)     
                 46  B1N2Ft     (N/m)     
                 47  B1N2Fn     (N/m)     
                 48  B1N2Mm     (N-m/m)   
                 49  B1N3Alpha  (deg)     
                 50  B1N3Cl     (-)       
                 51  B1N3Cd     (-)       
                 52  B1N3Cm     (-)       
                 53  B1N3Fl     (N/m)     
                 54  B1N3Fd     (N/m)     
                 55  B1N3Fn     (N/m)     
                 56  B1N3Ft     (N/m)     
                 57  B1N3Vrel   (m/s)     
                 58  B1N3AxInd  (-)       
                 59  B1N3TnInd  (-)       
                 60  B1N3Fx     (N/m)     
                 61  B1N3Fy     (N/m)     
                 62  B1N3Ft     (N/m)     
                 63  B1N3Fn     (N/m)     
                 64  B1N3Mm     (N-m/m)   
                 65  B1N4Alpha  (deg)     
                 66  B1N4Cl     (-)       
                 67  B1N4Cd     (-)       
                 68  B1N4Cm     (-)       
                 69  B1N4Fl     (N/m)     
                 70  B1N4Fd     (N/m)     
                 71  B1N4Fn     (N/m)     
                 72  B1N4Ft     (N/m)     
                 73  B1N4Vrel   (m/s)     
                 74  B1N4AxInd  (-)       
                 75  B1N4TnInd  (-)       
                 76  B1N4Fx     (N/m)     
                 77  B1N4Fy     (N/m)     
                 78  B1N4Ft     (N/m)     
                 79  B1N4Fn     (N/m)     
                 80  B1N4Mm     (N-m/m)   
                 81  B1N5Alpha  (deg)     
                 82  B1N5Cl     (-)       
                 83  B1N5Cd     (-)       
                 84  B1N5Cm     (-)       
                 85  B1N5Fl     (N/m)     
                 86  B1N5Fd     (N/m)     
                 87  B1N5Fn     (N/m)     
                 88  B1N5Ft     (N/m)     
                 89  B1N5Vrel   (m/s)     
                 90  B1N5AxInd  (-)       
                 91  B1N5TnInd  (-)       
                 92  B1N5Fx     (N/m)     
                 93  B1N5Fy     (N/m)     
                 94  B1N5Ft     (N/m)     
                 95  B1N5Fn     (N/m)     
                 96  B1N5Mm     (N-m/m)   
                 97  B1N6Alpha  (deg)     
                 98  B1N6Cl     (-)       
                 99  B1N6Cd     (-)       
                100  B1N6Cm     (-)       
                101  B1N6Fl     (N/m)     
                102  B1N6Fd     (N/m)     
                103  B1N6Fn     (N/m)     
                104  B1N6Ft     (N/m)     
                105  B1N6Vrel   (m/s)     
                106  B1N6AxInd  (-)       
                107  B1N6TnInd  (-)       
                108  B1N6Fx     (N/m)     
                109  B1N6Fy     (N/m)     
                110  B1N6Ft     (N/m)     
                111  B1N6Fn     (N/m)     
                112  B1N6Mm     (N-m/m)   
                113  B1N7Alpha  (deg)     
                114  B1N7Cl     (-)       
                115  B1N7Cd     (-)       
                116  B1N7Cm     (-)       
                117  B1N7Fl     (N/m)     
                118  B1N7Fd     (N/m)     
                119  B1N7Fn     (N/m)     
                120  B1N7Ft     (N/m)     
                121  B1N7Vrel   (m/s)     
                122  B1N7AxInd  (-)       
                123  B1N7TnInd  (-)       
                124  B1N7Fx     (N/m)     
                125  B1N7Fy     (N/m)     
                126  B1N7Ft     (N/m)     
                127  B1N7Fn     (N/m)     
                128  B1N7Mm     (N-m/m)   
                129  B1N8Alpha  (deg)     
                130  B1N8Cl     (-)       
                131  B1N8Cd     (-)       
                132  B1N8Cm     (-)       
                133  B1N8Fl     (N/m)     
                134  B1N8Fd     (N/m)     
                135  B1N8Fn     (N/m)     
                136  B1N8Ft     (N/m)     
                137  B1N8Vrel   (m/s)     
                138  B1N8AxInd  (-)       
                139  B1N8TnInd  (-)       
                140  B1N8Fx     (N/m)     
                141  B1N8Fy     (N/m)     
                142  B1N8Ft     (N/m)     
                143  B1N8Fn     (N/m)     
                144  B1N8Mm     (N-m/m)   
                145  B1N9Alpha  (deg)     
                146  B1N9Cl     (-)       
                147  B1N9Cd     (-)       
                148  B1N9Cm     (-)       
                149  B1N9Fl     (N/m)     
                150  B1N9Fd     (N/m)     
                151  B1N9Fn     (N/m)     
                152  B1N9Ft     (N/m)     
                153  B1N9Vrel   (m/s)     
                154  B1N9AxInd  (-)       
                155  B1N9TnInd  (-)       
                156  B1N9Fx     (N/m)     
                157  B1N9Fy     (N/m)     
                158  B1N9Ft     (N/m)     
                159  B1N9Fn     (N/m)     
                160  B1N9Mm     (N-m/m)   
                161  B1N1Gam    (m^2/s)   
                162  B1N2Gam    (m^2/s)   
                163  B1N3Gam    (m^2/s)   
                164  B1N4Gam    (m^2/s)   
                165  B1N5Gam    (m^2/s)   
                166  B1N6Gam    (m^2/s)   
                167  B1N7Gam    (m^2/s)   
                168  B1N8Gam    (m^2/s)   
                169  B1N9Gam    (m^2/s)   
                170  B2N1Gam    (m^2/s)   
                171  B2N2Gam    (m^2/s)   
                172  B2N3Gam    (m^2/s)   
                173  B2N4Gam    (m^2/s)   
                174  B2N5Gam    (m^2/s)   
                175  B2N6Gam    (m^2/s)   
                176  B2N7Gam    (m^2/s)   
                177  B2N8Gam    (m^2/s)   
                178  B2N9Gam    (m^2/s)   
                179  B3N1Gam    (m^2/s)   
                180  B3N2Gam    (m^2/s)   
                181  B3N3Gam    (m^2/s)   
                182  B3N4Gam    (m^2/s)   
                183  B3N5Gam    (m^2/s)   
                184  B3N6Gam    (m^2/s)   
                185  B3N7Gam    (m^2/s)   
                186  B3N8Gam    (m^2/s)   
                187  B3N9Gam    (m^2/s)   
