
This summary file was generated by HydroDyn  on 10-Nov-2020 at 10:04:35.

WAMIT Model
-----------
  Displaced volume (m^3)                 :     6.000000E+03
  X-offset of the center of buoyancy (m) :     0.000000E+00
  Y-offset of the center of buoyancy (m) :     0.000000E+00


  Buoyancy loads from members modelled with WAMIT, summed about ( 0.0, 0.0, 0.0 )
                                BuoyFxi               BuoyFyi               BuoyFzi               BuoyMxi               BuoyMyi               BuoyMzi 
                                  (N)                   (N)                   (N)                  (N-m)                 (N-m)                 (N-m)  
  External:                 0.000000E+00          0.000000E+00          6.031090E+07          0.000000E+00         -0.000000E+00          0.000000E+00



Volume Calculations(m^3)
------------------------
  Structure Volume     :    0.00000E+00
  Submerged Volume     :    0.00000E+00
  Marine Growth Volume :    0.00000E+00
  Ballasted Volume     :    0.00000E+00
              NOTE: Structure, Submerged and Marine Growth volumes are based on members not modelled with WAMIT
                      Ballasted volume is computed from all members which are marked as filled in the HydroDyn input file, regardless of PropPot flag



Buoyancy loads summed about ( 0.0, 0.0, 0.0 )
---------------------------------------------
                                BuoyFxi               BuoyFyi               BuoyFzi               BuoyMxi               BuoyMyi               BuoyMzi 
                                  (N)                   (N)                   (N)                  (N-m)                 (N-m)                 (N-m)  
 External:                  0.000000E+00          0.000000E+00          0.000000E+00          0.000000E+00          0.000000E+00          0.000000E+00
 Internal:                  0.000000E+00          0.000000E+00          0.000000E+00          0.000000E+00          0.000000E+00          0.000000E+00
 Total   :                  0.000000E+00          0.000000E+00          0.000000E+00          0.000000E+00          0.000000E+00          0.000000E+00
              NOTE: External buoyancy is based on members not modelled with WAMIT
                      Internal buoyancy is computed from all members which are marked as filled in the HydroDyn input file, regardless of PropPot flag
                    Total buoyancy does not include WAMIT-modelled buoyancy contribution



Weight loads about ( 0.0, 0.0, 0.0 )
------------------------------------
                                 MGFxi                 MGFyi                 MGFzi                 MGMxi                 MGMyi                 MGMzi  
                                  (N)                   (N)                   (N)                  (N-m)                 (N-m)                 (N-m)  
 Marine Growth:             0.000000E+00          0.000000E+00          0.000000E+00          0.000000E+00          0.000000E+00          0.000000E+00



Nodes


   i    JointIndx   JointOvrlp  InpMbrIndx     Nxi         Nyi         Nzi      InpMbrDist       R         dRdZ         t          tMG        MGDens      PropPot   FilledFlag   FillDens   FillFSLoc       Cd          Ca          Cp         AxCa        AxCp        JAxCd       JAxCa       JAxCp    NConn  Connection List
  (-)      (-)         (-)         (-)         (m)         (m)         (m)          (-)         (m)         (-)        (m)         (m)       (kg/m^3)      (-)         (-)       (kg/m^3)       (-)         (-)         (-)         (-)         (-)         (-)         (-)         (-)         (-)      (-)                  
     1           1           0           1      0.0000      0.0000     -4.0000      0.0000   2.257E+01   0.000E+00   1.000E-04   0.000E+00   0.000E+00           T           F   0.000E+00   0.000E+00   1.000E+00   0.000E+00   1.000E+00   1.000E+00   1.000E+00   0.000E+00   0.000E+00   1.000E+00      1     1
     2           2           0           1      0.0000      0.0000      0.0000      1.0000   2.257E+01   0.000E+00   1.000E-04   0.000E+00   0.000E+00           T           F   0.000E+00   0.000E+00   1.000E+00   0.000E+00   1.000E+00   1.000E+00   1.000E+00   0.000E+00   0.000E+00   1.000E+00      1     8
     3          -1           0           1      0.0000      0.0000     -3.5000      0.1250   2.257E+01   0.000E+00   1.000E-04   0.000E+00   0.000E+00           T           F   0.000E+00   0.000E+00   1.000E+00   0.000E+00   1.000E+00   1.000E+00   1.000E+00   0.000E+00   0.000E+00   0.000E+00      2     1     2
     4          -1           0           1      0.0000      0.0000     -3.0000      0.2500   2.257E+01   0.000E+00   1.000E-04   0.000E+00   0.000E+00           T           F   0.000E+00   0.000E+00   1.000E+00   0.000E+00   1.000E+00   1.000E+00   1.000E+00   0.000E+00   0.000E+00   0.000E+00      2     2     3
     5          -1           0           1      0.0000      0.0000     -2.5000      0.3750   2.257E+01   0.000E+00   1.000E-04   0.000E+00   0.000E+00           T           F   0.000E+00   0.000E+00   1.000E+00   0.000E+00   1.000E+00   1.000E+00   1.000E+00   0.000E+00   0.000E+00   0.000E+00      2     3     4
     6          -1           0           1      0.0000      0.0000     -2.0000      0.5000   2.257E+01   0.000E+00   1.000E-04   0.000E+00   0.000E+00           T           F   0.000E+00   0.000E+00   1.000E+00   0.000E+00   1.000E+00   1.000E+00   1.000E+00   0.000E+00   0.000E+00   0.000E+00      2     4     5
     7          -1           0           1      0.0000      0.0000     -1.5000      0.6250   2.257E+01   0.000E+00   1.000E-04   0.000E+00   0.000E+00           T           F   0.000E+00   0.000E+00   1.000E+00   0.000E+00   1.000E+00   1.000E+00   1.000E+00   0.000E+00   0.000E+00   0.000E+00      2     5     6
     8          -1           0           1      0.0000      0.0000     -1.0000      0.7500   2.257E+01   0.000E+00   1.000E-04   0.000E+00   0.000E+00           T           F   0.000E+00   0.000E+00   1.000E+00   0.000E+00   1.000E+00   1.000E+00   1.000E+00   0.000E+00   0.000E+00   0.000E+00      2     6     7
     9          -1           0           1      0.0000      0.0000     -0.5000      0.8750   2.257E+01   0.000E+00   1.000E-04   0.000E+00   0.000E+00           T           F   0.000E+00   0.000E+00   1.000E+00   0.000E+00   1.000E+00   1.000E+00   1.000E+00   0.000E+00   0.000E+00   0.000E+00      2     7     8



Elements


   i    node1  node2      Length       Volume       MGVolume          R1          tMG1           t1             R2          tMG2           t2          MGDens1       MGDens2        PropPot     FilledFlag   FillDensity    FillFSLoc     FillMass         Cd1            Ca1          Cp1          AxCa1         AxCp1        JAxCd1        JAxCa1        JAxCp1          Cd2           Ca2           Cp2          AxCa2         AxCp2        JAxCd2        JAxCa2        JAxCp2   
  (-)    (-)    (-)        (m)         (m^3)         (m^3)           (m)           (m)           (m)           (m)           (m)           (m)        (kg/m^3)      (kg/m^3)         (-)           (-)        (kg/m^3)         (-)          (kg)           (-)            (-)          (-)           (-)           (-)           (-)           (-)           (-)           (-)            (-)          (-)           (-)           (-)           (-)           (-)           (-)    
     1      1      3   5.00000E-01   0.00000E+00   0.00000E+00   2.25676E+01   0.00000E+00   1.00000E-04   2.25676E+01   0.00000E+00   1.00000E-04   0.00000E+00   0.00000E+00             T             F   0.00000E+00   0.00000E+00   0.00000E+00   1.00000E+00   0.00000E+00   1.00000E+00   1.00000E+00   1.00000E+00   0.00000E+00   0.00000E+00   1.00000E+00   1.00000E+00   0.00000E+00   1.00000E+00   1.00000E+00   1.00000E+00   0.00000E+00   0.00000E+00   0.00000E+00
     2      3      4   5.00000E-01   0.00000E+00   0.00000E+00   2.25676E+01   0.00000E+00   1.00000E-04   2.25676E+01   0.00000E+00   1.00000E-04   0.00000E+00   0.00000E+00             T             F   0.00000E+00   0.00000E+00   0.00000E+00   1.00000E+00   0.00000E+00   1.00000E+00   1.00000E+00   1.00000E+00   0.00000E+00   0.00000E+00   0.00000E+00   1.00000E+00   0.00000E+00   1.00000E+00   1.00000E+00   1.00000E+00   0.00000E+00   0.00000E+00   0.00000E+00
     3      4      5   5.00000E-01   0.00000E+00   0.00000E+00   2.25676E+01   0.00000E+00   1.00000E-04   2.25676E+01   0.00000E+00   1.00000E-04   0.00000E+00   0.00000E+00             T             F   0.00000E+00   0.00000E+00   0.00000E+00   1.00000E+00   0.00000E+00   1.00000E+00   1.00000E+00   1.00000E+00   0.00000E+00   0.00000E+00   0.00000E+00   1.00000E+00   0.00000E+00   1.00000E+00   1.00000E+00   1.00000E+00   0.00000E+00   0.00000E+00   0.00000E+00
     4      5      6   5.00000E-01   0.00000E+00   0.00000E+00   2.25676E+01   0.00000E+00   1.00000E-04   2.25676E+01   0.00000E+00   1.00000E-04   0.00000E+00   0.00000E+00             T             F   0.00000E+00   0.00000E+00   0.00000E+00   1.00000E+00   0.00000E+00   1.00000E+00   1.00000E+00   1.00000E+00   0.00000E+00   0.00000E+00   0.00000E+00   1.00000E+00   0.00000E+00   1.00000E+00   1.00000E+00   1.00000E+00   0.00000E+00   0.00000E+00   0.00000E+00
     5      6      7   5.00000E-01   0.00000E+00   0.00000E+00   2.25676E+01   0.00000E+00   1.00000E-04   2.25676E+01   0.00000E+00   1.00000E-04   0.00000E+00   0.00000E+00             T             F   0.00000E+00   0.00000E+00   0.00000E+00   1.00000E+00   0.00000E+00   1.00000E+00   1.00000E+00   1.00000E+00   0.00000E+00   0.00000E+00   0.00000E+00   1.00000E+00   0.00000E+00   1.00000E+00   1.00000E+00   1.00000E+00   0.00000E+00   0.00000E+00   0.00000E+00
     6      7      8   5.00000E-01   0.00000E+00   0.00000E+00   2.25676E+01   0.00000E+00   1.00000E-04   2.25676E+01   0.00000E+00   1.00000E-04   0.00000E+00   0.00000E+00             T             F   0.00000E+00   0.00000E+00   0.00000E+00   1.00000E+00   0.00000E+00   1.00000E+00   1.00000E+00   1.00000E+00   0.00000E+00   0.00000E+00   0.00000E+00   1.00000E+00   0.00000E+00   1.00000E+00   1.00000E+00   1.00000E+00   0.00000E+00   0.00000E+00   0.00000E+00
     7      8      9   5.00000E-01   0.00000E+00   0.00000E+00   2.25676E+01   0.00000E+00   1.00000E-04   2.25676E+01   0.00000E+00   1.00000E-04   0.00000E+00   0.00000E+00             T             F   0.00000E+00   0.00000E+00   0.00000E+00   1.00000E+00   0.00000E+00   1.00000E+00   1.00000E+00   1.00000E+00   0.00000E+00   0.00000E+00   0.00000E+00   1.00000E+00   0.00000E+00   1.00000E+00   1.00000E+00   1.00000E+00   0.00000E+00   0.00000E+00   0.00000E+00
     8      9      2   5.00000E-01   0.00000E+00   0.00000E+00   2.25676E+01   0.00000E+00   1.00000E-04   2.25676E+01   0.00000E+00   1.00000E-04   0.00000E+00   0.00000E+00             T             F   0.00000E+00   0.00000E+00   0.00000E+00   1.00000E+00   0.00000E+00   1.00000E+00   1.00000E+00   1.00000E+00   0.00000E+00   0.00000E+00   0.00000E+00   1.00000E+00   0.00000E+00   1.00000E+00   1.00000E+00   1.00000E+00   0.00000E+00   0.00000E+00   1.00000E+00



Requested Member Outputs


   Label         Xi          Yi          Zi      InpMbrIndx   StartXi     StartYi     StartZi      EndXi       EndYi       EndZi        Loc    
    (-)          (m)         (m)         (m)        (-)         (m)         (m)         (m)         (m)         (m)         (m)         (-)    



 Requested Joint Outputs


   Label         Xi          Yi          Zi      InpJointID
    (-)          (m)         (m)         (m)        (-)    



 Wave Kinematics


       m              k          Omega[m]       Direction    REAL(DFT{WaveElev})  IMAG(DFT{WaveElev})
      (-)           (1/m)        (rad/s)          (deg)             (m)                  (m)         
      -7259     1.60983E+01    -1.25646E+01     0.00000E+00    -4.35512E-01          6.80518E-02
      -7258     1.60938E+01    -1.25629E+01     0.00000E+00     1.90704E-01          1.27910E-01
      -7257     1.60894E+01    -1.25612E+01     0.00000E+00     1.58721E-01          2.37569E-02
      -7256     1.60850E+01    -1.25594E+01     0.00000E+00     3.32474E-01          3.10913E-01
      -7255     1.60805E+01    -1.25577E+01     0.00000E+00     6.07430E-01          1.10589E-01
      -7254     1.60761E+01    -1.25560E+01     0.00000E+00    -9.22472E-01          5.47698E-01
      -7253     1.60717E+01    -1.25543E+01     0.00000E+00     5.19968E-01         -4.50408E-01
      -7252     1.60672E+01    -1.25525E+01     0.00000E+00     3.37357E-01         -5.80109E-01
      -7251     1.60628E+01    -1.25508E+01     0.00000E+00     6.10001E-01          4.61004E-01
      -7250     1.60584E+01    -1.25491E+01     0.00000E+00     1.12655E+00         -2.38034E-02
      -7249     1.60540E+01    -1.25473E+01     0.00000E+00    -6.47435E-02         -2.75427E-01
      -7248     1.60495E+01    -1.25456E+01     0.00000E+00    -4.24909E-01          1.54009E-01
      -7247     1.60451E+01    -1.25439E+01     0.00000E+00     3.16778E-01         -3.72746E-01
      -7246     1.60407E+01    -1.25421E+01     0.00000E+00     6.71774E-02         -2.55764E-01
      -7245     1.60362E+01    -1.25404E+01     0.00000E+00    -8.47452E-01          3.27520E-02
      -7244     1.60318E+01    -1.25387E+01     0.00000E+00     2.93156E-01         -7.74190E-02
      -7243     1.60274E+01    -1.25369E+01     0.00000E+00     4.01813E-01         -2.45691E-01
      -7242     1.60230E+01    -1.25352E+01     0.00000E+00    -5.40626E-01         -4.21029E-01
      -7241     1.60185E+01    -1.25335E+01     0.00000E+00    -2.23219E-01          4.78613E-01
      -7240     1.60141E+01    -1.25318E+01     0.00000E+00     3.76526E-01          5.78886E-01
      -7239     1.60097E+01    -1.25300E+01     0.00000E+00    -6.85944E-02          7.53059E-01
      -7238     1.60053E+01    -1.25283E+01     0.00000E+00    -7.30045E-01         -2.27572E-01
      -7237     1.60008E+01    -1.25266E+01     0.00000E+00    -7.93543E-01         -3.68544E-01
      -7236     1.59964E+01    -1.25248E+01     0.00000E+00    -2.06215E-01          1.48411E-01
      -7235     1.59920E+01    -1.25231E+01     0.00000E+00     1.73879E-01          8.34696E-01
      -7234     1.59876E+01    -1.25214E+01     0.00000E+00    -2.71921E-01         -1.79141E-01
      -7233     1.59832E+01    -1.25196E+01     0.00000E+00     4.69976E-01         -5.19682E-01
      -7232     1.59787E+01    -1.25179E+01     0.00000E+00     3.49765E-01         -5.45196E-03
      -7231     1.59743E+01    -1.25162E+01     0.00000E+00     1.81337E-01          4.40913E-01
      -7230     1.59699E+01    -1.25144E+01     0.00000E+00    -3.15740E-01          2.52977E-01
      -7229     1.59655E+01    -1.25127E+01     0.00000E+00    -4.36310E-01         -3.54408E-01
      -7228     1.59611E+01    -1.25110E+01     0.00000E+00    -2.26945E-01         -3.10218E-01
      -7227     1.59567E+01    -1.25093E+01     0.00000E+00    -3.11498E-03         -2.03084E-02
      -7226     1.59522E+01    -1.25075E+01     0.00000E+00     7.48740E-02          2.86759E-01
      -7225     1.59478E+01    -1.25058E+01     0.00000E+00     2.10245E-01          3.04042E-01
      -7224     1.59434E+01    -1.25041E+01     0.00000E+00     1.67482E-01          4.49966E-01
      -7223     1.59390E+01    -1.25023E+01     0.00000E+00    -6.51455E-01         -1.68448E-01
      -7222     1.59346E+01    -1.25006E+01     0.00000E+00    -1.21872E-01         -6.69407E-01
      -7221     1.59302E+01    -1.24989E+01     0.00000E+00    -3.97191E-01          5.39605E-01
      -7220     1.59258E+01    -1.24971E+01     0.00000E+00     1.76630E-01          1.81990E-01
      -7219     1.59213E+01    -1.24954E+01     0.00000E+00     2.28191E-01         -4.76525E-01
      -7218     1.59169E+01    -1.24937E+01     0.00000E+00     3.83476E-01         -7.61019E-02
      -7217     1.59125E+01    -1.24919E+01     0.00000E+00    -1.21289E-01          1.02731E-01
      -7216     1.59081E+01    -1.24902E+01     0.00000E+00     2.70181E-01         -1.12726E-01
      -7215     1.59037E+01    -1.24885E+01     0.00000E+00     8.36128E-02         -4.79339E-01
      -7214     1.58993E+01    -1.24867E+01     0.00000E+00     1.91278E-01         -6.13949E-03
      -7213     1.58949E+01    -1.24850E+01     0.00000E+00    -1.95085E-01         -3.39876E-01
      -7212     1.58905E+01    -1.24833E+01     0.00000E+00    -3.42876E-01         -4.52627E-01
      -7211     1.58861E+01    -1.24816E+01     0.00000E+00     3.37480E-02          1.48077E-01
      -7210     1.58817E+01    -1.24798E+01     0.00000E+00     1.20961E-01          2.24161E-01
      -7209     1.58773E+01    -1.24781E+01     0.00000E+00     2.70712E-01         -1.50242E-01
      -7208     1.58729E+01    -1.24764E+01     0.00000E+00     4.44227E-01          1.02185E-01
      -7207     1.58685E+01    -1.24746E+01     0.00000E+00    -1.45240E-01          2.75593E-01
      -7206     1.58641E+01    -1.24729E+01     0.00000E+00     6.28350E-02         -1.71008E-01
      -7205     1.58597E+01    -1.24712E+01     0.00000E+00    -2.20497E-01         -5.74050E-01
      -7204     1.58553E+01    -1.24694E+01     0.00000E+00    -1.20404E-01         -3.09884E-02
      -7203     1.58509E+01    -1.24677E+01     0.00000E+00    -1.64576E-01          1.81925E-01
      -7202     1.58465E+01    -1.24660E+01     0.00000E+00     3.28257E-02         -3.28348E-01
      -7201     1.58421E+01    -1.24642E+01     0.00000E+00    -1.11049E-01          1.01148E+00
      -7200     1.58377E+01    -1.24625E+01     0.00000E+00     2.00814E-01         -2.02906E-01
      -7199     1.58333E+01    -1.24608E+01     0.00000E+00     7.22052E-02          5.22550E-01
      -7198     1.58289E+01    -1.24591E+01     0.00000E+00    -1.76389E-01         -2.25830E-01
      -7197     1.58245E+01    -1.24573E+01     0.00000E+00     1.78363E-01         -2.00187E-01
      -7196     1.58201E+01    -1.24556E+01     0.00000E+00    -3.96126E-01          1.13362E-01
      -7195     1.58157E+01    -1.24539E+01     0.00000E+00     4.60023E-02         -6.32647E-01
      -7194     1.58113E+01    -1.24521E+01     0.00000E+00     4.80205E-02          2.28754E-01
      -7193     1.58069E+01    -1.24504E+01     0.00000E+00    -2.80120E-02         -3.35478E-02
      -7192     1.58025E+01    -1.24487E+01     0.00000E+00     3.05063E-01          2.35915E-01
      -7191     1.57981E+01    -1.24469E+01     0.00000E+00     6.20481E-01          5.90925E-01
      -7190     1.57937E+01    -1.24452E+01     0.00000E+00     1.59722E-01         -2.40891E-01
      -7189     1.57893E+01    -1.24435E+01     0.00000E+00    -3.11563E-01         -3.88170E-01
      -7188     1.57849E+01    -1.24417E+01     0.00000E+00    -3.96332E-01         -7.31459E-02
      -7187     1.57805E+01    -1.24400E+01     0.00000E+00     7.15349E-02          1.91594E-01
      -7186     1.57761E+01    -1.24383E+01     0.00000E+00     3.31395E-01         -5.05560E-01
      -7185     1.57717E+01    -1.24366E+01     0.00000E+00    -6.64805E-01         -1.68176E-01
      -7184     1.57673E+01    -1.24348E+01     0.00000E+00    -1.70160E-01         -4.06974E-01
      -7183     1.57630E+01    -1.24331E+01     0.00000E+00    -3.71688E-01         -1.27904E-01
      -7182     1.57586E+01    -1.24314E+01     0.00000E+00     9.06776E-03          3.49328E-01
      -7181     1.57542E+01    -1.24296E+01     0.00000E+00     4.83338E-01          3.21489E-01
      -7180     1.57498E+01    -1.24279E+01     0.00000E+00     2.55101E-01          5.03933E-01
      -7179     1.57454E+01    -1.24262E+01     0.00000E+00     3.18892E-01         -3.40175E-02
      -7178     1.57410E+01    -1.24244E+01     0.00000E+00     1.69236E-01         -1.97284E-01
      -7177     1.57366E+01    -1.24227E+01     0.00000E+00     4.68233E-02         -5.60429E-01
      -7176     1.57322E+01    -1.24210E+01     0.00000E+00    -7.14604E-01         -3.11833E-01
      -7175     1.57279E+01    -1.24192E+01     0.00000E+00     1.50403E-01          1.13120E-01
      -7174     1.57235E+01    -1.24175E+01     0.00000E+00    -7.24666E-01          1.82751E-01
      -7173     1.57191E+01    -1.24158E+01     0.00000E+00    -2.84229E-01          1.80808E-01
      -7172     1.57147E+01    -1.24141E+01     0.00000E+00    -3.60585E-01         -7.55365E-01
      -7171     1.57103E+01    -1.24123E+01     0.00000E+00    -5.56658E-01         -5.17759E-01
      -7170     1.57059E+01    -1.24106E+01     0.00000E+00     2.17932E-02         -1.25813E-01
      -7169     1.57016E+01    -1.24089E+01     0.00000E+00    -2.33783E-02          2.77506E-01
      -7168     1.56972E+01    -1.24071E+01     0.00000E+00     4.12170E-01          1.94055E-01
      -7167     1.56928E+01    -1.24054E+01     0.00000E+00     1.77497E-01         -3.01703E-01
      -7166     1.56884E+01    -1.24037E+01     0.00000E+00     1.97082E-01          3.77171E-01
      -7165     1.56840E+01    -1.24019E+01     0.00000E+00    -3.84189E-01          4.90715E-01
      -7164     1.56797E+01    -1.24002E+01     0.00000E+00     9.53117E-02          4.20895E-01
      -7163     1.56753E+01    -1.23985E+01     0.00000E+00    -1.17785E-01         -3.51096E-02
      -7162     1.56709E+01    -1.23967E+01     0.00000E+00     3.26985E-01          1.33586E-01
      -7161     1.56665E+01    -1.23950E+01     0.00000E+00    -3.28828E-02          4.11063E-01
      -7160     1.56622E+01    -1.23933E+01     0.00000E+00     2.47743E-01          2.55416E-01
      -7159     1.56578E+01    -1.23915E+01     0.00000E+00    -1.94195E-01          3.47022E-02
      -7158     1.56534E+01    -1.23898E+01     0.00000E+00    -7.14441E-01          4.72997E-01
      -7157     1.56490E+01    -1.23881E+01     0.00000E+00     6.89218E-01          4.03010E-01
      -7156     1.56447E+01    -1.23864E+01     0.00000E+00     4.07950E-01         -1.26866E-01
      -7155     1.56403E+01    -1.23846E+01     0.00000E+00    -9.78403E-02         -5.34845E-01
      -7154     1.56359E+01    -1.23829E+01     0.00000E+00    -7.32890E-01         -2.84013E-01
      -7153     1.56316E+01    -1.23812E+01     0.00000E+00     2.86447E-01         -1.15206E-01
      -7152     1.56272E+01    -1.23794E+01     0.00000E+00     1.87309E-01          3.52218E-01
      -7151     1.56228E+01    -1.23777E+01     0.00000E+00    -6.37475E-01         -5.09418E-02
      -7150     1.56184E+01    -1.23760E+01     0.00000E+00    -3.62662E-01         -2.73299E-01
      -7149     1.56141E+01    -1.23742E+01     0.00000E+00    -6.92367E-01         -2.52905E-01
      -7148     1.56097E+01    -1.23725E+01     0.00000E+00    -1.29805E-01         -1.07391E+00
      -7147     1.56053E+01    -1.23708E+01     0.00000E+00     7.98049E-03          6.15768E-01
      -7146     1.56010E+01    -1.23690E+01     0.00000E+00    -1.76280E-01          6.23487E-02
      -7145     1.55966E+01    -1.23673E+01     0.00000E+00    -2.94366E-01          3.01283E-01
      -7144     1.55922E+01    -1.23656E+01     0.00000E+00     6.96414E-01         -2.53528E-01
      -7143     1.55879E+01    -1.23639E+01     0.00000E+00    -3.50631E-01         -5.03073E-01
      -7142     1.55835E+01    -1.23621E+01     0.00000E+00    -1.14944E-01         -1.02239E+00
      -7141     1.55792E+01    -1.23604E+01     0.00000E+00     4.10943E-01          3.60193E-01
      -7140     1.55748E+01    -1.23587E+01     0.00000E+00    -5.48327E-01          9.41148E-02
      -7139     1.55704E+01    -1.23569E+01     0.00000E+00     3.02076E-01          5.57208E-01
      -7138     1.55661E+01    -1.23552E+01     0.00000E+00     7.28932E-02         -2.40305E-02
      -7137     1.55617E+01    -1.23535E+01     0.00000E+00    -4.98539E-01          4.77658E-01
      -7136     1.55573E+01    -1.23517E+01     0.00000E+00     4.26469E-01          5.86500E-01
      -7135     1.55530E+01    -1.23500E+01     0.00000E+00    -1.40894E-01          2.35514E-01
      -7134     1.55486E+01    -1.23483E+01     0.00000E+00    -6.13646E-02          1.12532E-01
      -7133     1.55443E+01    -1.23465E+01     0.00000E+00     3.75433E-01         -4.70221E-01
      -7132     1.55399E+01    -1.23448E+01     0.00000E+00    -3.31517E-01         -4.72975E-01
      -7131     1.55356E+01    -1.23431E+01     0.00000E+00     2.70705E-02          9.42830E-02
      -7130     1.55312E+01    -1.23414E+01     0.00000E+00    -3.43533E-01          1.74234E-01
      -7129     1.55268E+01    -1.23396E+01     0.00000E+00     5.26680E-01          1.66805E-01
      -7128     1.55225E+01    -1.23379E+01     0.00000E+00     5.42728E-01         -3.62490E-01
      -7127     1.55181E+01    -1.23362E+01     0.00000E+00    -4.42791E-01         -8.82898E-02
      -7126     1.55138E+01    -1.23344E+01     0.00000E+00     2.57708E-01          6.98744E-02
      -7125     1.55094E+01    -1.23327E+01     0.00000E+00    -3.70630E-01         -2.27464E-01
      -7124     1.55051E+01    -1.23310E+01     0.00000E+00    -4.41906E-02          5.65448E-01
      -7123     1.55007E+01    -1.23292E+01     0.00000E+00     4.17376E-01          7.52201E-02
      -7122     1.54964E+01    -1.23275E+01     0.00000E+00     6.45872E-01         -3.57786E-01
      -7121     1.54920E+01    -1.23258E+01     0.00000E+00     4.97997E-01          5.23143E-02
      -7120     1.54877E+01    -1.23240E+01     0.00000E+00    -3.79955E-01         -9.89952E-03
      -7119     1.54833E+01    -1.23223E+01     0.00000E+00    -1.62496E-01         -2.46414E-01
      -7118     1.54790E+01    -1.23206E+01     0.00000E+00    -5.02309E-01         -1.14861E-01
      -7117     1.54746E+01    -1.23189E+01     0.00000E+00     4.03850E-02         -2.96120E-01
      -7116     1.54703E+01    -1.23171E+01     0.00000E+00     7.53910E-02         -3.77455E-01
      -7115     1.54659E+01    -1.23154E+01     0.00000E+00    -3.54402E-01         -5.76511E-01
      -7114     1.54616E+01    -1.23137E+01     0.00000E+00    -7.26919E-01          6.39086E-02
      -7113     1.54572E+01    -1.23119E+01     0.00000E+00     1.19110E-01          3.14633E-01
      -7112     1.54529E+01    -1.23102E+01     0.00000E+00    -2.27945E-02          2.82948E-01
      -7111     1.54485E+01    -1.23085E+01     0.00000E+00    -6.10063E-02          3.94897E-01
      -7110     1.54442E+01    -1.23067E+01     0.00000E+00     6.00174E-02          1.80839E-01
      -7109     1.54398E+01    -1.23050E+01     0.00000E+00     7.95743E-02         -1.07468E-01
      -7108     1.54355E+01    -1.23033E+01     0.00000E+00    -6.54470E-02          3.50723E-01
      -7107     1.54312E+01    -1.23015E+01     0.00000E+00     4.68035E-01          4.70430E-02
      -7106     1.54268E+01    -1.22998E+01     0.00000E+00    -7.49505E-01         -2.31286E-01
      -7105     1.54225E+01    -1.22981E+01     0.00000E+00    -2.79432E-02          5.42571E-01
      -7104     1.54181E+01    -1.22963E+01     0.00000E+00    -1.60187E-01          1.73491E-01
      -7103     1.54138E+01    -1.22946E+01     0.00000E+00     1.58786E-01          5.82986E-01
      -7102     1.54094E+01    -1.22929E+01     0.00000E+00    -5.72961E-01         -3.58832E-01
      -7101     1.54051E+01    -1.22912E+01     0.00000E+00     3.99894E-01          5.77926E-01
      -7100     1.54008E+01    -1.22894E+01     0.00000E+00    -7.09266E-01         -4.25434E-01
      -7099     1.53964E+01    -1.22877E+01     0.00000E+00     8.31383E-01          1.23757E-01
      -7098     1.53921E+01    -1.22860E+01     0.00000E+00    -1.62403E-01          7.39649E-01
      -7097     1.53878E+01    -1.22842E+01     0.00000E+00    -1.17019E-01         -1.16213E-02
      -7096     1.53834E+01    -1.22825E+01     0.00000E+00     9.88983E-01         -5.48503E-01
      -7095     1.53791E+01    -1.22808E+01     0.00000E+00    -8.02309E-01         -7.54055E-02
      -7094     1.53748E+01    -1.22790E+01     0.00000E+00     9.24744E-02          3.09124E-03
      -7093     1.53704E+01    -1.22773E+01     0.00000E+00    -2.50471E-01          2.66197E-02
      -7092     1.53661E+01    -1.22756E+01     0.00000E+00    -5.04767E-02          2.05222E-01
      -7091     1.53618E+01    -1.22738E+01     0.00000E+00     1.55148E-01          4.28969E-01
      -7090     1.53574E+01    -1.22721E+01     0.00000E+00    -1.01979E+00          4.56096E-01
      -7089     1.53531E+01    -1.22704E+01     0.00000E+00     1.30398E-01         -3.93428E-01
      -7088     1.53488E+01    -1.22687E+01     0.00000E+00    -5.60227E-02         -2.20669E-01
      -7087     1.53444E+01    -1.22669E+01     0.00000E+00    -6.77646E-01          3.71377E-01
      -7086     1.53401E+01    -1.22652E+01     0.00000E+00    -1.77615E-01          1.71779E-01
      -7085     1.53358E+01    -1.22635E+01     0.00000E+00    -4.79130E-02         -6.03783E-01
      -7084     1.53314E+01    -1.22617E+01     0.00000E+00     2.08913E-02         -1.03404E-01
      -7083     1.53271E+01    -1.22600E+01     0.00000E+00     3.26572E-01          2.08561E-01
      -7082     1.53228E+01    -1.22583E+01     0.00000E+00    -3.22302E-01         -1.14489E-01
      -7081     1.53185E+01    -1.22565E+01     0.00000E+00    -3.44216E-01         -3.66468E-01
      -7080     1.53141E+01    -1.22548E+01     0.00000E+00    -5.29397E-01          1.28339E-01
      -7079     1.53098E+01    -1.22531E+01     0.00000E+00     7.38166E-01         -5.11383E-04
      -7078     1.53055E+01    -1.22513E+01     0.00000E+00     4.28412E-01          8.52407E-01
      -7077     1.53012E+01    -1.22496E+01     0.00000E+00     4.46350E-01          5.54805E-01
      -7076     1.52968E+01    -1.22479E+01     0.00000E+00     1.85222E-02          1.16296E-01
      -7075     1.52925E+01    -1.22462E+01     0.00000E+00    -4.87418E-01         -1.31390E-01
      -7074     1.52882E+01    -1.22444E+01     0.00000E+00     1.71012E-01          3.00660E-01
      -7073     1.52839E+01    -1.22427E+01     0.00000E+00    -5.57676E-01         -1.38393E-01
      -7072     1.52795E+01    -1.22410E+01     0.00000E+00     1.62416E-01          2.26737E-01
      -7071     1.52752E+01    -1.22392E+01     0.00000E+00     1.23069E-01         -6.85465E-01
      -7070     1.52709E+01    -1.22375E+01     0.00000E+00     7.66136E-01          2.56505E-01
      -7069     1.52666E+01    -1.22358E+01     0.00000E+00    -3.50303E-01         -1.11977E-01
      -7068     1.52623E+01    -1.22340E+01     0.00000E+00     2.14079E-01         -3.92150E-02
      -7067     1.52579E+01    -1.22323E+01     0.00000E+00     3.58550E-01         -7.65158E-01
      -7066     1.52536E+01    -1.22306E+01     0.00000E+00    -1.97641E-01          3.75564E-01
      -7065     1.52493E+01    -1.22288E+01     0.00000E+00    -1.24557E-01          3.41339E-02
      -7064     1.52450E+01    -1.22271E+01     0.00000E+00     5.30977E-02          1.90646E-01
      -7063     1.52407E+01    -1.22254E+01     0.00000E+00    -6.21005E-01         -6.90304E-01
      -7062     1.52364E+01    -1.22237E+01     0.00000E+00     1.43521E-01          1.09288E+00
      -7061     1.52320E+01    -1.22219E+01     0.00000E+00    -5.90512E-01          1.15583E-01
      -7060     1.52277E+01    -1.22202E+01     0.00000E+00     4.04551E-02          5.88104E-02
      -7059     1.52234E+01    -1.22185E+01     0.00000E+00     5.83249E-01          1.89506E-01
      -7058     1.52191E+01    -1.22167E+01     0.00000E+00     4.62494E-02         -1.01363E-01
      -7057     1.52148E+01    -1.22150E+01     0.00000E+00     3.40385E-01         -1.83645E-01
      -7056     1.52105E+01    -1.22133E+01     0.00000E+00    -4.47382E-01         -2.40830E-01
      -7055     1.52062E+01    -1.22115E+01     0.00000E+00    -6.54528E-02         -3.05010E-01
      -7054     1.52019E+01    -1.22098E+01     0.00000E+00    -9.39625E-02          9.67438E-03
      -7053     1.51976E+01    -1.22081E+01     0.00000E+00     2.77456E-01         -6.29030E-01
      -7052     1.51932E+01    -1.22063E+01     0.00000E+00     5.74268E-01         -6.12938E-01
      -7051     1.51889E+01    -1.22046E+01     0.00000E+00    -2.37719E-01         -7.04039E-02
      -7050     1.51846E+01    -1.22029E+01     0.00000E+00     6.32407E-02         -1.96456E-03
      -7049     1.51803E+01    -1.22011E+01     0.00000E+00    -3.59553E-01         -2.01627E-01
      -7048     1.51760E+01    -1.21994E+01     0.00000E+00    -1.41187E-01         -5.75444E-01
      -7047     1.51717E+01    -1.21977E+01     0.00000E+00     8.03393E-01          4.59327E-01
      -7046     1.51674E+01    -1.21960E+01     0.00000E+00    -2.15127E-01          7.99181E-02
      -7045     1.51631E+01    -1.21942E+01     0.00000E+00    -4.40842E-01          3.77906E-01
      -7044     1.51588E+01    -1.21925E+01     0.00000E+00     6.44268E-01         -3.49511E-01
      -7043     1.51545E+01    -1.21908E+01     0.00000E+00    -1.24357E-01          7.88216E-02
      -7042     1.51502E+01    -1.21890E+01     0.00000E+00    -6.70158E-01         -4.61736E-01
      -7041     1.51459E+01    -1.21873E+01     0.00000E+00    -5.32933E-01         -4.98896E-01
      -7040     1.51416E+01    -1.21856E+01     0.00000E+00    -2.69625E-01         -2.94881E-01
      -7039     1.51373E+01    -1.21838E+01     0.00000E+00     1.63422E-01         -2.30188E-02
      -7038     1.51330E+01    -1.21821E+01     0.00000E+00    -2.50888E-01          4.46391E-01
      -7037     1.51287E+01    -1.21804E+01     0.00000E+00    -1.48351E-01         -4.05429E-01
      -7036     1.51244E+01    -1.21786E+01     0.00000E+00     1.47802E-01          1.49787E-01
      -7035     1.51201E+01    -1.21769E+01     0.00000E+00    -3.15811E-01          7.22028E-01
      -7034     1.51158E+01    -1.21752E+01     0.00000E+00    -1.48450E-01          5.59037E-01
      -7033     1.51115E+01    -1.21735E+01     0.00000E+00    -2.38305E-01          1.89024E-01
      -7032     1.51072E+01    -1.21717E+01     0.00000E+00     9.96084E-01         -4.98506E-01
      -7031     1.51029E+01    -1.21700E+01     0.00000E+00     7.15292E-01         -8.14210E-01
      -7030     1.50986E+01    -1.21683E+01     0.00000E+00    -6.19546E-02          5.41362E-01
      -7029     1.50943E+01    -1.21665E+01     0.00000E+00    -3.07687E-01         -6.11588E-01
      -7028     1.50900E+01    -1.21648E+01     0.00000E+00     1.93126E-01         -6.95235E-01
      -7027     1.50857E+01    -1.21631E+01     0.00000E+00    -4.40344E-01          9.12817E-02
      -7026     1.50814E+01    -1.21613E+01     0.00000E+00    -2.83044E-01         -2.97242E-01
      -7025     1.50771E+01    -1.21596E+01     0.00000E+00    -6.28357E-01          4.16271E-01
      -7024     1.50728E+01    -1.21579E+01     0.00000E+00    -4.75140E-01         -8.81731E-01
      -7023     1.50685E+01    -1.21561E+01     0.00000E+00    -3.84641E-01          2.83212E-01
      -7022     1.50642E+01    -1.21544E+01     0.00000E+00    -6.37251E-01          7.06259E-01
      -7021     1.50600E+01    -1.21527E+01     0.00000E+00     2.60249E-01          3.18955E-01
      -7020     1.50557E+01    -1.21510E+01     0.00000E+00     2.49843E-01          2.64741E-02
      -7019     1.50514E+01    -1.21492E+01     0.00000E+00     5.84321E-01         -7.88156E-01
      -7018     1.50471E+01    -1.21475E+01     0.00000E+00     3.54591E-01          3.91280E-02
      -7017     1.50428E+01    -1.21458E+01     0.00000E+00    -3.70690E-01          4.02841E-01
      -7016     1.50385E+01    -1.21440E+01     0.00000E+00    -1.05677E-01          4.11565E-01
      -7015     1.50342E+01    -1.21423E+01     0.00000E+00    -1.49690E-01          3.11919E-01
      -7014     1.50299E+01    -1.21406E+01     0.00000E+00     8.79687E-02         -9.00134E-02
      -7013     1.50257E+01    -1.21388E+01     0.00000E+00     5.62443E-02          1.58289E-01
      -7012     1.50214E+01    -1.21371E+01     0.00000E+00     6.44194E-01         -2.56864E-01
      -7011     1.50171E+01    -1.21354E+01     0.00000E+00     1.93654E-01          3.99656E-01
      -7010     1.50128E+01    -1.21336E+01     0.00000E+00    -3.05402E-01          6.17173E-01
      -7009     1.50085E+01    -1.21319E+01     0.00000E+00     1.19099E-02          4.74205E-01
      -7008     1.50042E+01    -1.21302E+01     0.00000E+00    -3.83700E-02         -8.10006E-01
      -7007     1.50000E+01    -1.21285E+01     0.00000E+00     1.17512E-01          3.98655E-01
      -7006     1.49957E+01    -1.21267E+01     0.00000E+00    -1.74104E-01         -2.55119E-01
      -7005     1.49914E+01    -1.21250E+01     0.00000E+00    -5.96731E-01         -3.17491E-01
      -7004     1.49871E+01    -1.21233E+01     0.00000E+00     4.13349E-01         -2.54756E-01
      -7003     1.49828E+01    -1.21215E+01     0.00000E+00    -1.55212E-02          4.66478E-01
      -7002     1.49786E+01    -1.21198E+01     0.00000E+00     5.21633E-01          5.63169E-01
      -7001     1.49743E+01    -1.21181E+01     0.00000E+00    -9.78208E-01         -1.82853E-01
      -7000     1.49700E+01    -1.21163E+01     0.00000E+00    -3.18504E-01         -4.81268E-01
      -6999     1.49657E+01    -1.21146E+01     0.00000E+00    -4.75108E-01         -2.91488E-01
      -6998     1.49614E+01    -1.21129E+01     0.00000E+00    -6.36863E-01          9.35565E-02
      -6997     1.49572E+01    -1.21111E+01     0.00000E+00    -3.37285E-01         -1.73994E-01
      -6996     1.49529E+01    -1.21094E+01     0.00000E+00     3.82371E-01          3.96972E-01
      -6995     1.49486E+01    -1.21077E+01     0.00000E+00     8.06527E-01          1.26210E-02
      -6994     1.49444E+01    -1.21059E+01     0.00000E+00     2.41340E-01         -8.09461E-03
      -6993     1.49401E+01    -1.21042E+01     0.00000E+00     4.77807E-01         -3.43488E-01
      -6992     1.49358E+01    -1.21025E+01     0.00000E+00    -1.17208E-01          2.93446E-01
      -6991     1.49315E+01    -1.21008E+01     0.00000E+00     1.42582E-01         -5.27961E-02
      -6990     1.49273E+01    -1.20990E+01     0.00000E+00     3.14519E-01          4.98473E-01
      -6989     1.49230E+01    -1.20973E+01     0.00000E+00     3.31352E-01          3.12171E-01
      -6988     1.49187E+01    -1.20956E+01     0.00000E+00     2.50930E-01         -1.36560E-01
      -6987     1.49145E+01    -1.20938E+01     0.00000E+00     3.04302E-01          6.57507E-01
      -6986     1.49102E+01    -1.20921E+01     0.00000E+00    -3.38198E-02         -2.61980E-01
      -6985     1.49059E+01    -1.20904E+01     0.00000E+00     1.72678E-02          2.90899E-01
      -6984     1.49016E+01    -1.20886E+01     0.00000E+00     2.89275E-01          7.01653E-02
      -6983     1.48974E+01    -1.20869E+01     0.00000E+00     1.47036E-01         -3.14214E-01
      -6982     1.48931E+01    -1.20852E+01     0.00000E+00    -7.33248E-02          8.63955E-01
      -6981     1.48888E+01    -1.20834E+01     0.00000E+00     3.25781E-01         -9.11444E-02
      -6980     1.48846E+01    -1.20817E+01     0.00000E+00     2.03362E-01          1.37220E-01
      -6979     1.48803E+01    -1.20800E+01     0.00000E+00     1.94009E-01          1.73524E-01
      -6978     1.48761E+01    -1.20783E+01     0.00000E+00     3.57440E-01         -3.63324E-02
      -6977     1.48718E+01    -1.20765E+01     0.00000E+00    -6.12090E-02          1.18387E-01
      -6976     1.48675E+01    -1.20748E+01     0.00000E+00    -1.58861E-01         -3.10571E-01
      -6975     1.48633E+01    -1.20731E+01     0.00000E+00    -8.94588E-02          3.89248E-01
      -6974     1.48590E+01    -1.20713E+01     0.00000E+00     2.90564E-01          4.96256E-01
      -6973     1.48547E+01    -1.20696E+01     0.00000E+00    -3.73578E-01          6.45717E-02
      -6972     1.48505E+01    -1.20679E+01     0.00000E+00    -4.17453E-01          1.77400E-01
      -6971     1.48462E+01    -1.20661E+01     0.00000E+00    -1.18768E+00          1.02883E-01
      -6970     1.48420E+01    -1.20644E+01     0.00000E+00     4.06385E-01         -6.41050E-01
      -6969     1.48377E+01    -1.20627E+01     0.00000E+00    -1.07570E-01          1.04991E-01
      -6968     1.48334E+01    -1.20609E+01     0.00000E+00     2.98271E-01          5.94752E-02
      -6967     1.48292E+01    -1.20592E+01     0.00000E+00     5.21418E-02          4.19130E-01
      -6966     1.48249E+01    -1.20575E+01     0.00000E+00    -4.79819E-01          2.60920E-01
      -6965     1.48207E+01    -1.20558E+01     0.00000E+00    -2.02882E-01          4.86375E-01
      -6964     1.48164E+01    -1.20540E+01     0.00000E+00     4.57391E-01         -6.75053E-01
      -6963     1.48122E+01    -1.20523E+01     0.00000E+00     1.71866E-01          4.48164E-01
      -6962     1.48079E+01    -1.20506E+01     0.00000E+00    -2.35263E-01          2.83635E-01
      -6961     1.48037E+01    -1.20488E+01     0.00000E+00     3.27306E-02         -1.92605E-01
      -6960     1.47994E+01    -1.20471E+01     0.00000E+00    -1.39678E-02          4.94986E-02
      -6959     1.47952E+01    -1.20454E+01     0.00000E+00    -2.45629E-01          7.65887E-01
      -6958     1.47909E+01    -1.20436E+01     0.00000E+00     1.18939E-01         -2.48916E-01
      -6957     1.47867E+01    -1.20419E+01     0.00000E+00    -2.44496E-02         -5.94331E-03
      -6956     1.47824E+01    -1.20402E+01     0.00000E+00     2.23614E-01         -2.63205E-01
      -6955     1.47782E+01    -1.20384E+01     0.00000E+00     9.15805E-01         -7.80502E-01
      -6954     1.47739E+01    -1.20367E+01     0.00000E+00    -1.67104E-01          4.30116E-01
      -6953     1.47697E+01    -1.20350E+01     0.00000E+00     3.16161E-01         -6.91215E-02
      -6952     1.47654E+01    -1.20333E+01     0.00000E+00    -2.46236E-01         -2.45662E-02
      -6951     1.47612E+01    -1.20315E+01     0.00000E+00    -8.54792E-02         -7.92779E-02
      -6950     1.47569E+01    -1.20298E+01     0.00000E+00     1.54657E-01          4.81189E-01
      -6949     1.47527E+01    -1.20281E+01     0.00000E+00    -4.23637E-01          5.30249E-01
      -6948     1.47484E+01    -1.20263E+01     0.00000E+00     6.26181E-02          3.15952E-02
      -6947     1.47442E+01    -1.20246E+01     0.00000E+00     2.68701E-01          4.80205E-01
      -6946     1.47399E+01    -1.20229E+01     0.00000E+00    -5.99560E-01          3.38610E-01
      -6945     1.47357E+01    -1.20211E+01     0.00000E+00     3.45923E-01         -4.24687E-01
      -6944     1.47314E+01    -1.20194E+01     0.00000E+00     1.20404E+00         -4.10593E-01
      -6943     1.47272E+01    -1.20177E+01     0.00000E+00     1.85724E-01         -5.81762E-01
      -6942     1.47230E+01    -1.20159E+01     0.00000E+00    -6.24308E-02         -3.77564E-01
      -6941     1.47187E+01    -1.20142E+01     0.00000E+00     4.04215E-01          9.62916E-02
      -6940     1.47145E+01    -1.20125E+01     0.00000E+00     2.29458E-01         -4.88415E-01
      -6939     1.47102E+01    -1.20107E+01     0.00000E+00     8.05115E-01         -8.40338E-02
      -6938     1.47060E+01    -1.20090E+01     0.00000E+00     3.37630E-01         -4.74846E-01
      -6937     1.47018E+01    -1.20073E+01     0.00000E+00    -1.82779E-01         -5.41649E-01
      -6936     1.46975E+01    -1.20056E+01     0.00000E+00    -2.69460E-01         -2.74246E-01
      -6935     1.46933E+01    -1.20038E+01     0.00000E+00     9.02989E-02         -2.97542E-01
      -6934     1.46890E+01    -1.20021E+01     0.00000E+00     6.68391E-01         -4.16820E-01
      -6933     1.46848E+01    -1.20004E+01     0.00000E+00     8.93273E-02         -1.12199E-01
      -6932     1.46806E+01    -1.19986E+01     0.00000E+00    -2.85330E-01         -2.35325E-01
      -6931     1.46763E+01    -1.19969E+01     0.00000E+00     4.54002E-01         -2.90024E-02
      -6930     1.46721E+01    -1.19952E+01     0.00000E+00    -3.58196E-01         -5.28740E-01
      -6929     1.46679E+01    -1.19934E+01     0.00000E+00     6.39551E-01         -1.09583E-01
      -6928     1.46636E+01    -1.19917E+01     0.00000E+00    -2.67246E-01          5.04518E-03
      -6927     1.46594E+01    -1.19900E+01     0.00000E+00     1.30620E-01          5.96853E-02
      -6926     1.46552E+01    -1.19882E+01     0.00000E+00    -7.08425E-01          1.61821E-01
      -6925     1.46509E+01    -1.19865E+01     0.00000E+00    -7.66582E-01          3.74415E-01
      -6924     1.46467E+01    -1.19848E+01     0.00000E+00    -1.48212E-01         -8.20650E-01
      -6923     1.46425E+01    -1.19831E+01     0.00000E+00    -3.27552E-01          1.36877E-01
      -6922     1.46382E+01    -1.19813E+01     0.00000E+00     5.91274E-01          3.42056E-01
      -6921     1.46340E+01    -1.19796E+01     0.00000E+00     2.51752E-01         -2.43577E-01
      -6920     1.46298E+01    -1.19779E+01     0.00000E+00    -4.15152E-01          9.48094E-02
      -6919     1.46256E+01    -1.19761E+01     0.00000E+00    -5.35563E-01         -4.51133E-01
      -6918     1.46213E+01    -1.19744E+01     0.00000E+00    -1.16704E+00          2.79192E-01
      -6917     1.46171E+01    -1.19727E+01     0.00000E+00     8.63918E-01          8.38854E-01
      -6916     1.46129E+01    -1.19709E+01     0.00000E+00     5.56547E-01         -1.25744E+00
      -6915     1.46087E+01    -1.19692E+01     0.00000E+00    -1.27682E-01         -8.30763E-01
      -6914     1.46044E+01    -1.19675E+01     0.00000E+00     1.36898E-01          8.78078E-01
      -6913     1.46002E+01    -1.19657E+01     0.00000E+00     4.91207E-01         -7.16650E-01
      -6912     1.45960E+01    -1.19640E+01     0.00000E+00    -3.69056E-01         -1.40451E-01
      -6911     1.45918E+01    -1.19623E+01     0.00000E+00    -7.14840E-02         -7.66625E-01
      -6910     1.45875E+01    -1.19606E+01     0.00000E+00     4.18267E-01          4.73674E-01
      -6909     1.45833E+01    -1.19588E+01     0.00000E+00    -2.55980E-01          9.56732E-03
      -6908     1.45791E+01    -1.19571E+01     0.00000E+00    -8.86345E-02         -2.66167E-01
      -6907     1.45749E+01    -1.19554E+01     0.00000E+00     5.29546E-01          2.50218E-01
      -6906     1.45707E+01    -1.19536E+01     0.00000E+00     5.52527E-01         -5.12021E-02
      -6905     1.45664E+01    -1.19519E+01     0.00000E+00    -8.63905E-02          6.63758E-01
      -6904     1.45622E+01    -1.19502E+01     0.00000E+00     9.68333E-01         -1.40766E-01
      -6903     1.45580E+01    -1.19484E+01     0.00000E+00    -5.65856E-01          6.25487E-01
      -6902     1.45538E+01    -1.19467E+01     0.00000E+00    -1.27935E-01          2.66193E-01
      -6901     1.45496E+01    -1.19450E+01     0.00000E+00     4.62451E-01         -3.38566E-01
      -6900     1.45453E+01    -1.19432E+01     0.00000E+00     5.43175E-02         -6.14366E-01
      -6899     1.45411E+01    -1.19415E+01     0.00000E+00     8.64995E-01         -7.66090E-02
      -6898     1.45369E+01    -1.19398E+01     0.00000E+00    -1.29062E-01          6.84109E-01
      -6897     1.45327E+01    -1.19381E+01     0.00000E+00     4.44018E-01          1.32408E-01
      -6896     1.45285E+01    -1.19363E+01     0.00000E+00     5.32294E-01          2.75271E-01
      -6895     1.45243E+01    -1.19346E+01     0.00000E+00    -7.87334E-01          1.37222E-01
      -6894     1.45201E+01    -1.19329E+01     0.00000E+00    -2.19736E-01          4.05527E-01
      -6893     1.45158E+01    -1.19311E+01     0.00000E+00    -6.33391E-01         -5.08102E-01
      -6892     1.45116E+01    -1.19294E+01     0.00000E+00    -2.35092E-01          4.17851E-01
      -6891     1.45074E+01    -1.19277E+01     0.00000E+00     2.34798E-01         -3.44268E-01
      -6890     1.45032E+01    -1.19259E+01     0.00000E+00    -5.46717E-01          3.61105E-01
      -6889     1.44990E+01    -1.19242E+01     0.00000E+00    -2.22738E-01          4.90632E-01
      -6888     1.44948E+01    -1.19225E+01     0.00000E+00    -4.80649E-01         -6.39965E-02
      -6887     1.44906E+01    -1.19207E+01     0.00000E+00    -2.00937E-01         -2.96023E-01
      -6886     1.44864E+01    -1.19190E+01     0.00000E+00     7.91956E-02         -7.21273E-01
      -6885     1.44822E+01    -1.19173E+01     0.00000E+00    -1.30246E-01         -1.80371E-01
      -6884     1.44780E+01    -1.19156E+01     0.00000E+00    -5.98031E-02         -2.16746E-02
      -6883     1.44738E+01    -1.19138E+01     0.00000E+00     2.84710E-01          2.84610E-01
      -6882     1.44696E+01    -1.19121E+01     0.00000E+00     3.82756E-01         -8.21583E-01
      -6881     1.44653E+01    -1.19104E+01     0.00000E+00    -2.65557E-02          4.39487E-01
      -6880     1.44611E+01    -1.19086E+01     0.00000E+00     3.22554E-02          2.32978E-01
      -6879     1.44569E+01    -1.19069E+01     0.00000E+00     6.32254E-01          3.91803E-01
      -6878     1.44527E+01    -1.19052E+01     0.00000E+00    -5.30298E-01         -6.90582E-01
      -6877     1.44485E+01    -1.19034E+01     0.00000E+00    -3.11597E-01          4.71335E-02
      -6876     1.44443E+01    -1.19017E+01     0.00000E+00    -1.39675E-01         -3.65816E-01
      -6875     1.44401E+01    -1.19000E+01     0.00000E+00    -9.66910E-02          1.05686E-01
      -6874     1.44359E+01    -1.18982E+01     0.00000E+00     3.28593E-02         -3.41411E-01
      -6873     1.44317E+01    -1.18965E+01     0.00000E+00    -1.67478E-01         -9.88114E-02
      -6872     1.44275E+01    -1.18948E+01     0.00000E+00     8.23686E-01         -1.70958E-01
      -6871     1.44233E+01    -1.18930E+01     0.00000E+00    -7.65794E-01          8.62866E-02
      -6870     1.44191E+01    -1.18913E+01     0.00000E+00    -4.27418E-01         -2.72368E-01
      -6869     1.44149E+01    -1.18896E+01     0.00000E+00     2.86990E-01          6.13067E-01
      -6868     1.44107E+01    -1.18879E+01     0.00000E+00    -3.81977E-01          6.32867E-02
      -6867     1.44065E+01    -1.18861E+01     0.00000E+00    -1.92680E-01          1.07805E-01
      -6866     1.44024E+01    -1.18844E+01     0.00000E+00    -7.24918E-01         -2.01530E-01
      -6865     1.43982E+01    -1.18827E+01     0.00000E+00    -2.75212E-02         -1.89104E-01
      -6864     1.43940E+01    -1.18809E+01     0.00000E+00     2.66172E-02         -7.29592E-01
      -6863     1.43898E+01    -1.18792E+01     0.00000E+00    -1.70069E-01          2.55969E-01
      -6862     1.43856E+01    -1.18775E+01     0.00000E+00     3.27481E-01          3.27227E-02
      -6861     1.43814E+01    -1.18757E+01     0.00000E+00     1.44562E-01          3.67925E-01
      -6860     1.43772E+01    -1.18740E+01     0.00000E+00    -2.19856E-02          7.43830E-02
      -6859     1.43730E+01    -1.18723E+01     0.00000E+00    -9.52529E-02         -5.48852E-02
      -6858     1.43688E+01    -1.18705E+01     0.00000E+00     3.30852E-01          3.54874E-02
      -6857     1.43646E+01    -1.18688E+01     0.00000E+00     5.07180E-01          8.02535E-01
      -6856     1.43604E+01    -1.18671E+01     0.00000E+00    -6.88066E-01         -1.14230E+00
      -6855     1.43562E+01    -1.18654E+01     0.00000E+00    -7.70639E-01         -2.50881E-01
      -6854     1.43521E+01    -1.18636E+01     0.00000E+00     8.74045E-02         -6.31381E-02
      -6853     1.43479E+01    -1.18619E+01     0.00000E+00    -2.68856E-01          3.09684E-01
      -6852     1.43437E+01    -1.18602E+01     0.00000E+00    -7.05178E-01          2.09338E-01
      -6851     1.43395E+01    -1.18584E+01     0.00000E+00    -3.87438E-01          6.29435E-01
      -6850     1.43353E+01    -1.18567E+01     0.00000E+00    -6.13222E-01          1.36791E-01
      -6849     1.43311E+01    -1.18550E+01     0.00000E+00    -9.70275E-01          3.21515E-01
      -6848     1.43269E+01    -1.18532E+01     0.00000E+00    -9.60721E-02         -5.64123E-01
      -6847     1.43228E+01    -1.18515E+01     0.00000E+00     8.94657E-01          1.83110E-01
      -6846     1.43186E+01    -1.18498E+01     0.00000E+00    -6.43405E-01         -5.66940E-01
      -6845     1.43144E+01    -1.18480E+01     0.00000E+00    -6.98408E-01          1.59352E-01
      -6844     1.43102E+01    -1.18463E+01     0.00000E+00    -6.14250E-01         -4.68756E-01
      -6843     1.43060E+01    -1.18446E+01     0.00000E+00     2.31935E-01         -3.35424E-01
      -6842     1.43018E+01    -1.18429E+01     0.00000E+00    -1.77164E-01          5.57545E-01
      -6841     1.42977E+01    -1.18411E+01     0.00000E+00     8.46983E-01          9.70599E-01
      -6840     1.42935E+01    -1.18394E+01     0.00000E+00     2.77778E-01         -4.80172E-01
      -6839     1.42893E+01    -1.18377E+01     0.00000E+00    -5.43114E-02         -1.68170E-01
      -6838     1.42851E+01    -1.18359E+01     0.00000E+00    -2.38629E-01         -1.93847E-01
      -6837     1.42809E+01    -1.18342E+01     0.00000E+00     9.86170E-02         -1.79413E-01
      -6836     1.42768E+01    -1.18325E+01     0.00000E+00    -2.75437E-01          2.00641E-01
      -6835     1.42726E+01    -1.18307E+01     0.00000E+00     1.13379E-01         -5.50449E-01
      -6834     1.42684E+01    -1.18290E+01     0.00000E+00    -6.32062E-01         -1.89214E-01
      -6833     1.42642E+01    -1.18273E+01     0.00000E+00     5.26309E-02         -1.99099E-01
      -6832     1.42601E+01    -1.18255E+01     0.00000E+00     4.91806E-01          4.86647E-01
      -6831     1.42559E+01    -1.18238E+01     0.00000E+00    -1.61522E-03         -5.89198E-01
      -6830     1.42517E+01    -1.18221E+01     0.00000E+00     1.20534E-01         -4.56131E-01
      -6829     1.42475E+01    -1.18204E+01     0.00000E+00     1.09478E-01          1.55236E-01
      -6828     1.42434E+01    -1.18186E+01     0.00000E+00     3.74775E-01          2.29358E-01
      -6827     1.42392E+01    -1.18169E+01     0.00000E+00     4.59254E-01         -1.44031E-01
      -6826     1.42350E+01    -1.18152E+01     0.00000E+00    -4.69321E-02         -4.75116E-01
      -6825     1.42309E+01    -1.18134E+01     0.00000E+00    -1.82924E-01          9.54813E-02
      -6824     1.42267E+01    -1.18117E+01     0.00000E+00    -4.66808E-01          4.90992E-01
      -6823     1.42225E+01    -1.18100E+01     0.00000E+00     2.72962E-01         -8.97430E-01
      -6822     1.42184E+01    -1.18082E+01     0.00000E+00     1.88184E-01         -3.18953E-02
      -6821     1.42142E+01    -1.18065E+01     0.00000E+00    -8.26027E-01          6.45016E-01
      -6820     1.42100E+01    -1.18048E+01     0.00000E+00     3.41257E-02          7.51733E-01
      -6819     1.42058E+01    -1.18030E+01     0.00000E+00     1.70965E-01          3.69769E-01
      -6818     1.42017E+01    -1.18013E+01     0.00000E+00    -1.12266E-01         -8.60561E-01
      -6817     1.41975E+01    -1.17996E+01     0.00000E+00     3.51364E-02         -3.87996E-01
      -6816     1.41934E+01    -1.17978E+01     0.00000E+00    -2.39250E-01          2.61535E-01
      -6815     1.41892E+01    -1.17961E+01     0.00000E+00    -6.05939E-01          5.47426E-01
      -6814     1.41850E+01    -1.17944E+01     0.00000E+00    -5.02297E-01         -9.50336E-01
      -6813     1.41809E+01    -1.17927E+01     0.00000E+00     9.91440E-02         -6.70714E-02
      -6812     1.41767E+01    -1.17909E+01     0.00000E+00     4.05090E-01         -1.89165E-01
      -6811     1.41725E+01    -1.17892E+01     0.00000E+00    -1.85489E-01          5.76615E-01
      -6810     1.41684E+01    -1.17875E+01     0.00000E+00    -6.11397E-01         -2.66641E-01
      -6809     1.41642E+01    -1.17857E+01     0.00000E+00    -1.11891E+00         -9.64373E-02
      -6808     1.41601E+01    -1.17840E+01     0.00000E+00    -7.50792E-01         -2.12126E-01
      -6807     1.41559E+01    -1.17823E+01     0.00000E+00    -7.74221E-02         -3.59010E-01
      -6806     1.41517E+01    -1.17805E+01     0.00000E+00    -1.20192E-01          1.07793E-01
      -6805     1.41476E+01    -1.17788E+01     0.00000E+00    -1.83414E-01          5.52823E-01
      -6804     1.41434E+01    -1.17771E+01     0.00000E+00    -3.01095E-01         -2.83758E-01
      -6803     1.41393E+01    -1.17753E+01     0.00000E+00     5.67376E-01         -1.87543E-01
      -6802     1.41351E+01    -1.17736E+01     0.00000E+00     1.04720E-01         -2.97629E-01
      -6801     1.41309E+01    -1.17719E+01     0.00000E+00    -3.49265E-02         -1.60977E-01
      -6800     1.41268E+01    -1.17702E+01     0.00000E+00     1.86506E-01         -1.09540E-01
      -6799     1.41226E+01    -1.17684E+01     0.00000E+00    -2.40919E-01         -2.91347E-01
      -6798     1.41185E+01    -1.17667E+01     0.00000E+00     3.05612E-02          2.68408E-01
      -6797     1.41143E+01    -1.17650E+01     0.00000E+00    -1.30546E-01         -6.32569E-01
      -6796     1.41102E+01    -1.17632E+01     0.00000E+00    -6.46162E-01         -2.24222E-01
      -6795     1.41060E+01    -1.17615E+01     0.00000E+00    -3.56023E-01          3.40169E-01
      -6794     1.41019E+01    -1.17598E+01     0.00000E+00     1.77025E-01          1.79877E-01
      -6793     1.40977E+01    -1.17580E+01     0.00000E+00    -7.16463E-02         -5.56524E-01
      -6792     1.40936E+01    -1.17563E+01     0.00000E+00     5.50579E-01         -7.17818E-01
      -6791     1.40894E+01    -1.17546E+01     0.00000E+00    -1.09065E-01          5.20497E-01
      -6790     1.40853E+01    -1.17528E+01     0.00000E+00    -1.48101E-01         -4.29452E-01
      -6789     1.40811E+01    -1.17511E+01     0.00000E+00    -2.23566E-01         -4.57532E-01
      -6788     1.40770E+01    -1.17494E+01     0.00000E+00    -9.28916E-01         -1.02409E+00
      -6787     1.40728E+01    -1.17477E+01     0.00000E+00     1.11487E-02          8.36821E-01
      -6786     1.40687E+01    -1.17459E+01     0.00000E+00    -8.70999E-01         -7.94460E-01
      -6785     1.40645E+01    -1.17442E+01     0.00000E+00    -9.34931E-02          1.96870E-01
      -6784     1.40604E+01    -1.17425E+01     0.00000E+00     5.15700E-02          2.68468E-01
      -6783     1.40562E+01    -1.17407E+01     0.00000E+00     5.23600E-01          6.64085E-01
      -6782     1.40521E+01    -1.17390E+01     0.00000E+00    -2.91915E-01          2.42653E-01
      -6781     1.40480E+01    -1.17373E+01     0.00000E+00    -7.85858E-02         -4.08933E-01
      -6780     1.40438E+01    -1.17355E+01     0.00000E+00     2.54463E-01         -9.02905E-02
      -6779     1.40397E+01    -1.17338E+01     0.00000E+00    -6.46958E-01         -4.39986E-01
      -6778     1.40355E+01    -1.17321E+01     0.00000E+00    -1.43877E-01          1.85370E-02
      -6777     1.40314E+01    -1.17303E+01     0.00000E+00     6.01492E-01          8.29251E-01
      -6776     1.40273E+01    -1.17286E+01     0.00000E+00    -1.08613E+00         -2.02267E-01
      -6775     1.40231E+01    -1.17269E+01     0.00000E+00     5.09648E-01         -2.82680E-01
      -6774     1.40190E+01    -1.17252E+01     0.00000E+00     6.45215E-01          2.81716E-01
      -6773     1.40148E+01    -1.17234E+01     0.00000E+00    -1.78799E-01         -4.06824E-01
      -6772     1.40107E+01    -1.17217E+01     0.00000E+00    -1.01526E+00          4.52485E-01
      -6771     1.40066E+01    -1.17200E+01     0.00000E+00     4.47180E-01         -6.71433E-01
      -6770     1.40024E+01    -1.17182E+01     0.00000E+00     2.92594E-01         -1.04996E-01
      -6769     1.39983E+01    -1.17165E+01     0.00000E+00     3.60310E-01         -1.21203E-01
      -6768     1.39942E+01    -1.17148E+01     0.00000E+00    -1.87743E-01          8.84320E-03
      -6767     1.39900E+01    -1.17130E+01     0.00000E+00    -4.98748E-01         -7.42532E-01
      -6766     1.39859E+01    -1.17113E+01     0.00000E+00     1.89606E-02          1.14746E+00
      -6765     1.39817E+01    -1.17096E+01     0.00000E+00     2.98035E-02         -3.90767E-01
      -6764     1.39776E+01    -1.17078E+01     0.00000E+00     4.50551E-01         -4.47929E-01
      -6763     1.39735E+01    -1.17061E+01     0.00000E+00     5.48610E-01          1.97126E-01
      -6762     1.39693E+01    -1.17044E+01     0.00000E+00     2.95605E-01         -1.51051E-01
      -6761     1.39652E+01    -1.17026E+01     0.00000E+00    -2.17445E-01         -1.51140E-01
      -6760     1.39611E+01    -1.17009E+01     0.00000E+00     4.98767E-01          5.04093E-01
      -6759     1.39570E+01    -1.16992E+01     0.00000E+00     7.92751E-01          5.52618E-01
      -6758     1.39528E+01    -1.16975E+01     0.00000E+00    -4.29603E-01          7.83993E-01
      -6757     1.39487E+01    -1.16957E+01     0.00000E+00    -8.01078E-02          1.02996E+00
      -6756     1.39446E+01    -1.16940E+01     0.00000E+00     3.54557E-01          1.75756E-01
      -6755     1.39404E+01    -1.16923E+01     0.00000E+00     2.78757E-01         -6.97040E-01
      -6754     1.39363E+01    -1.16905E+01     0.00000E+00     1.51648E-01         -5.77844E-01
      -6753     1.39322E+01    -1.16888E+01     0.00000E+00    -6.67342E-01         -2.14532E-01
      -6752     1.39281E+01    -1.16871E+01     0.00000E+00    -4.44841E-02          5.17296E-01
      -6751     1.39239E+01    -1.16853E+01     0.00000E+00     4.66863E-02          5.13769E-01
      -6750     1.39198E+01    -1.16836E+01     0.00000E+00     4.36586E-02          1.10680E-01
      -6749     1.39157E+01    -1.16819E+01     0.00000E+00    -8.59676E-02         -7.22970E-01
      -6748     1.39116E+01    -1.16801E+01     0.00000E+00     2.15649E-01         -3.15887E-01
      -6747     1.39074E+01    -1.16784E+01     0.00000E+00     2.75600E-01         -3.85644E-01
      -6746     1.39033E+01    -1.16767E+01     0.00000E+00     6.44831E-03         -4.83367E-01
      -6745     1.38992E+01    -1.16750E+01     0.00000E+00    -3.50575E-02         -2.14389E-02
      -6744     1.38951E+01    -1.16732E+01     0.00000E+00     8.79153E-02          4.67548E-01
      -6743     1.38910E+01    -1.16715E+01     0.00000E+00    -4.07558E-01          5.59433E-01
      -6742     1.38868E+01    -1.16698E+01     0.00000E+00     3.48881E-01         -5.17230E-01
      -6741     1.38827E+01    -1.16680E+01     0.00000E+00    -4.76661E-02         -1.07861E-01
      -6740     1.38786E+01    -1.16663E+01     0.00000E+00    -1.24863E-01          2.89620E-01
      -6739     1.38745E+01    -1.16646E+01     0.00000E+00    -2.33425E-02         -5.97033E-01
      -6738     1.38704E+01    -1.16628E+01     0.00000E+00     3.86901E-02          2.52645E-01
      -6737     1.38662E+01    -1.16611E+01     0.00000E+00     7.34729E-02         -4.24736E-01
      -6736     1.38621E+01    -1.16594E+01     0.00000E+00     1.86000E-01         -1.20956E-01
      -6735     1.38580E+01    -1.16576E+01     0.00000E+00     2.60782E-01         -5.95154E-03
      -6734     1.38539E+01    -1.16559E+01     0.00000E+00     4.32690E-01         -3.87446E-01
      -6733     1.38498E+01    -1.16542E+01     0.00000E+00    -1.85212E-02         -2.03418E-01
      -6732     1.38457E+01    -1.16525E+01     0.00000E+00    -6.27239E-01          2.77675E-01
      -6731     1.38416E+01    -1.16507E+01     0.00000E+00    -1.11273E+00         -1.90366E-01
      -6730     1.38374E+01    -1.16490E+01     0.00000E+00     9.22657E-02          4.96820E-01
      -6729     1.38333E+01    -1.16473E+01     0.00000E+00    -1.55022E-01          6.92095E-01
      -6728     1.38292E+01    -1.16455E+01     0.00000E+00     1.22222E-01         -1.76074E-01
      -6727     1.38251E+01    -1.16438E+01     0.00000E+00     2.74898E-01          8.07611E-01
      -6726     1.38210E+01    -1.16421E+01     0.00000E+00     6.74246E-01         -4.19042E-01
      -6725     1.38169E+01    -1.16403E+01     0.00000E+00    -7.18693E-01          4.09072E-01
      -6724     1.38128E+01    -1.16386E+01     0.00000E+00     2.23417E-01          3.93055E-01
      -6723     1.38087E+01    -1.16369E+01     0.00000E+00     9.03366E-01          4.19252E-01
      -6722     1.38046E+01    -1.16351E+01     0.00000E+00    -6.08733E-01          1.85792E-01
      -6721     1.38005E+01    -1.16334E+01     0.00000E+00     4.81956E-01          6.89445E-01
      -6720     1.37964E+01    -1.16317E+01     0.00000E+00    -4.68006E-02          1.51813E-01
      -6719     1.37922E+01    -1.16300E+01     0.00000E+00    -2.87222E-01          4.93574E-01
      -6718     1.37881E+01    -1.16282E+01     0.00000E+00     8.04588E-01          7.48828E-02
      -6717     1.37840E+01    -1.16265E+01     0.00000E+00    -4.74844E-01          9.34490E-01
      -6716     1.37799E+01    -1.16248E+01     0.00000E+00     3.59348E-01         -1.05921E-01
      -6715     1.37758E+01    -1.16230E+01     0.00000E+00     3.30982E-01          5.19031E-01
      -6714     1.37717E+01    -1.16213E+01     0.00000E+00    -3.81806E-01         -2.77366E-01
      -6713     1.37676E+01    -1.16196E+01     0.00000E+00     2.63499E-01          4.17893E-01
      -6712     1.37635E+01    -1.16178E+01     0.00000E+00    -2.56781E-01         -2.61435E-01
      -6711     1.37594E+01    -1.16161E+01     0.00000E+00    -8.67305E-01         -1.85752E-01
      -6710     1.37553E+01    -1.16144E+01     0.00000E+00    -1.96571E-01          8.25993E-02
      -6709     1.37512E+01    -1.16126E+01     0.00000E+00     1.22645E-01         -2.66894E-01
      -6708     1.37471E+01    -1.16109E+01     0.00000E+00    -3.12989E-02          4.09103E-01
      -6707     1.37430E+01    -1.16092E+01     0.00000E+00     1.42975E-01          3.18042E-01
      -6706     1.37389E+01    -1.16074E+01     0.00000E+00     2.14936E-01          3.45881E-01
      -6705     1.37348E+01    -1.16057E+01     0.00000E+00    -3.90599E-01         -2.77657E-01
      -6704     1.37307E+01    -1.16040E+01     0.00000E+00     1.64601E-01          1.09323E-01
      -6703     1.37266E+01    -1.16023E+01     0.00000E+00     6.55468E-01         -2.29398E-01
      -6702     1.37225E+01    -1.16005E+01     0.00000E+00    -5.51362E-01         -1.14684E+00
      -6701     1.37185E+01    -1.15988E+01     0.00000E+00    -2.52704E-01          7.95636E-01
      -6700     1.37144E+01    -1.15971E+01     0.00000E+00     8.95448E-02         -8.36198E-01
      -6699     1.37103E+01    -1.15953E+01     0.00000E+00    -1.66960E-01          3.70391E-01
      -6698     1.37062E+01    -1.15936E+01     0.00000E+00    -1.15085E-01          1.79850E-01
      -6697     1.37021E+01    -1.15919E+01     0.00000E+00    -6.27397E-01          4.16914E-01
      -6696     1.36980E+01    -1.15901E+01     0.00000E+00     5.11443E-01          1.58783E-01
      -6695     1.36939E+01    -1.15884E+01     0.00000E+00     4.06893E-01         -1.63770E-01
      -6694     1.36898E+01    -1.15867E+01     0.00000E+00    -1.01970E+00          2.22595E-01
      -6693     1.36857E+01    -1.15849E+01     0.00000E+00     2.53374E-01          5.43083E-02
      -6692     1.36816E+01    -1.15832E+01     0.00000E+00     5.96330E-01         -3.39577E-01
      -6691     1.36775E+01    -1.15815E+01     0.00000E+00    -2.14273E-01         -7.26663E-01
      -6690     1.36734E+01    -1.15798E+01     0.00000E+00     1.77984E+00          4.96553E-02
      -6689     1.36694E+01    -1.15780E+01     0.00000E+00    -3.67968E-02          5.70074E-01
      -6688     1.36653E+01    -1.15763E+01     0.00000E+00     2.20200E-01         -1.02542E-01
      -6687     1.36612E+01    -1.15746E+01     0.00000E+00     5.82032E-01          2.12580E-01
      -6686     1.36571E+01    -1.15728E+01     0.00000E+00     3.89153E-01         -2.94004E-01
      -6685     1.36530E+01    -1.15711E+01     0.00000E+00     1.97942E-01          1.88475E-01
      -6684     1.36489E+01    -1.15694E+01     0.00000E+00     3.52799E-01          2.63547E-01
      -6683     1.36448E+01    -1.15676E+01     0.00000E+00     1.91004E-01         -3.61576E-01
      -6682     1.36408E+01    -1.15659E+01     0.00000E+00     1.36574E+00          3.85762E-01
      -6681     1.36367E+01    -1.15642E+01     0.00000E+00    -8.34205E-01         -3.77545E-01
      -6680     1.36326E+01    -1.15624E+01     0.00000E+00     2.26549E-02         -1.17138E-01
      -6679     1.36285E+01    -1.15607E+01     0.00000E+00     3.93641E-02         -2.32937E-01
      -6678     1.36244E+01    -1.15590E+01     0.00000E+00    -2.35845E-01         -6.89258E-01
      -6677     1.36204E+01    -1.15573E+01     0.00000E+00     5.13242E-02          1.18750E+00
      -6676     1.36163E+01    -1.15555E+01     0.00000E+00    -7.50532E-01         -3.31999E-01
      -6675     1.36122E+01    -1.15538E+01     0.00000E+00     1.93030E-01         -3.89384E-01
      -6674     1.36081E+01    -1.15521E+01     0.00000E+00     4.45341E-01         -1.13157E-01
      -6673     1.36040E+01    -1.15503E+01     0.00000E+00    -2.29820E-01          8.91066E-01
      -6672     1.36000E+01    -1.15486E+01     0.00000E+00    -6.55859E-01          2.46802E-01
      -6671     1.35959E+01    -1.15469E+01     0.00000E+00    -5.20370E-02         -2.62384E-01
      -6670     1.35918E+01    -1.15451E+01     0.00000E+00    -6.59453E-01         -2.41541E-01
      -6669     1.35877E+01    -1.15434E+01     0.00000E+00     5.13073E-03          1.86611E-01
      -6668     1.35837E+01    -1.15417E+01     0.00000E+00    -1.60588E-01          4.93420E-01
      -6667     1.35796E+01    -1.15399E+01     0.00000E+00    -4.97007E-02          1.12072E-01
      -6666     1.35755E+01    -1.15382E+01     0.00000E+00    -2.34145E-01          4.94220E-01
      -6665     1.35714E+01    -1.15365E+01     0.00000E+00    -4.69117E-01         -4.15862E-03
      -6664     1.35674E+01    -1.15348E+01     0.00000E+00     4.71292E-01         -2.53945E-01
      -6663     1.35633E+01    -1.15330E+01     0.00000E+00     1.12902E-01         -2.70312E-01
      -6662     1.35592E+01    -1.15313E+01     0.00000E+00    -3.40653E-01         -3.27059E-01
      -6661     1.35552E+01    -1.15296E+01     0.00000E+00    -2.29005E-01         -3.40488E-02
      -6660     1.35511E+01    -1.15278E+01     0.00000E+00    -1.82536E-01          6.59880E-01
      -6659     1.35470E+01    -1.15261E+01     0.00000E+00    -3.37124E-01         -2.30043E-01
      -6658     1.35430E+01    -1.15244E+01     0.00000E+00     1.29305E-01         -9.17632E-02
      -6657     1.35389E+01    -1.15226E+01     0.00000E+00     1.54417E-01         -5.74046E-01
      -6656     1.35348E+01    -1.15209E+01     0.00000E+00    -3.45455E-01         -2.68257E-02
      -6655     1.35308E+01    -1.15192E+01     0.00000E+00     2.43372E-01          7.55149E-01
      -6654     1.35267E+01    -1.15174E+01     0.00000E+00     4.01062E-01          2.02463E-01
      -6653     1.35226E+01    -1.15157E+01     0.00000E+00     6.26850E-01         -4.72277E-01
      -6652     1.35186E+01    -1.15140E+01     0.00000E+00     2.69258E-01         -5.32834E-01
      -6651     1.35145E+01    -1.15122E+01     0.00000E+00    -7.83398E-04         -1.86810E-02
      -6650     1.35104E+01    -1.15105E+01     0.00000E+00     2.67143E-01         -9.91052E-01
      -6649     1.35064E+01    -1.15088E+01     0.00000E+00    -7.13324E-01         -3.52364E-01
      -6648     1.35023E+01    -1.15071E+01     0.00000E+00    -3.69518E-01         -5.50851E-01
      -6647     1.34982E+01    -1.15053E+01     0.00000E+00     2.25788E-01          5.50014E-02
      -6646     1.34942E+01    -1.15036E+01     0.00000E+00     1.44851E-01          9.63399E-02
      -6645     1.34901E+01    -1.15019E+01     0.00000E+00     1.21853E-01         -2.39490E-01
      -6644     1.34861E+01    -1.15001E+01     0.00000E+00    -1.70155E-01         -7.14044E-02
      -6643     1.34820E+01    -1.14984E+01     0.00000E+00     2.09195E-02          6.93155E-01
      -6642     1.34779E+01    -1.14967E+01     0.00000E+00    -7.40892E-02          1.10541E-01
      -6641     1.34739E+01    -1.14949E+01     0.00000E+00     6.43930E-01         -7.83418E-01
      -6640     1.34698E+01    -1.14932E+01     0.00000E+00    -5.51974E-01         -1.23032E-02
      -6639     1.34658E+01    -1.14915E+01     0.00000E+00     3.34786E-01         -5.30777E-02
      -6638     1.34617E+01    -1.14897E+01     0.00000E+00    -1.39112E+00          1.29450E-01
      -6637     1.34577E+01    -1.14880E+01     0.00000E+00     1.03130E-01          3.33069E-01
      -6636     1.34536E+01    -1.14863E+01     0.00000E+00    -5.84968E-02         -8.66594E-02
      -6635     1.34495E+01    -1.14846E+01     0.00000E+00    -4.70264E-01         -1.78638E-01
      -6634     1.34455E+01    -1.14828E+01     0.00000E+00     4.00131E-01          5.83816E-01
      -6633     1.34414E+01    -1.14811E+01     0.00000E+00     9.81420E-02          7.18171E-01
      -6632     1.34374E+01    -1.14794E+01     0.00000E+00    -9.28505E-01          2.31421E-01
      -6631     1.34333E+01    -1.14776E+01     0.00000E+00    -3.17805E-01          1.26187E-01
      -6630     1.34293E+01    -1.14759E+01     0.00000E+00     1.79560E-01         -4.29733E-01
      -6629     1.34252E+01    -1.14742E+01     0.00000E+00    -3.11826E-01         -1.22928E-02
      -6628     1.34212E+01    -1.14724E+01     0.00000E+00     5.20868E-01         -3.89031E-01
      -6627     1.34171E+01    -1.14707E+01     0.00000E+00    -2.39051E-01          6.97061E-02
      -6626     1.34131E+01    -1.14690E+01     0.00000E+00    -9.02510E-01         -9.48322E-02
      -6625     1.34090E+01    -1.14672E+01     0.00000E+00     4.48094E-01         -3.00651E-01
      -6624     1.34050E+01    -1.14655E+01     0.00000E+00     3.46894E-01         -1.53731E-02
      -6623     1.34009E+01    -1.14638E+01     0.00000E+00     1.29698E-01         -1.58232E-01
      -6622     1.33969E+01    -1.14621E+01     0.00000E+00    -1.14835E-01         -3.96538E-01
      -6621     1.33928E+01    -1.14603E+01     0.00000E+00     1.42703E+00         -4.69130E-01
      -6620     1.33888E+01    -1.14586E+01     0.00000E+00     1.61010E-01          3.56143E-01
      -6619     1.33848E+01    -1.14569E+01     0.00000E+00     4.80135E-01          4.93945E-02
      -6618     1.33807E+01    -1.14551E+01     0.00000E+00     6.30988E-01          5.46465E-01
      -6617     1.33767E+01    -1.14534E+01     0.00000E+00     1.04351E-01         -3.24525E-01
      -6616     1.33726E+01    -1.14517E+01     0.00000E+00     1.01747E+00         -2.48021E-02
      -6615     1.33686E+01    -1.14499E+01     0.00000E+00     1.00008E+00         -2.16256E-01
      -6614     1.33645E+01    -1.14482E+01     0.00000E+00    -7.31646E-01         -3.49511E-01
      -6613     1.33605E+01    -1.14465E+01     0.00000E+00     6.25033E-01         -3.48595E-04
      -6612     1.33565E+01    -1.14447E+01     0.00000E+00    -4.64736E-01         -2.70527E-01
      -6611     1.33524E+01    -1.14430E+01     0.00000E+00     1.35742E-01         -4.93095E-01
      -6610     1.33484E+01    -1.14413E+01     0.00000E+00     6.69890E-02         -4.36602E-01
      -6609     1.33443E+01    -1.14396E+01     0.00000E+00     1.02784E-01          1.94252E-01
      -6608     1.33403E+01    -1.14378E+01     0.00000E+00     8.36495E-01          3.89483E-02
      -6607     1.33363E+01    -1.14361E+01     0.00000E+00     5.06212E-01          2.03958E-02
      -6606     1.33322E+01    -1.14344E+01     0.00000E+00    -6.83514E-01          1.25542E-01
      -6605     1.33282E+01    -1.14326E+01     0.00000E+00     6.32743E-01          7.57878E-02
      -6604     1.33242E+01    -1.14309E+01     0.00000E+00     5.56512E-01          5.66137E-01
      -6603     1.33201E+01    -1.14292E+01     0.00000E+00     9.76890E-01          2.47105E-01
      -6602     1.33161E+01    -1.14274E+01     0.00000E+00    -1.67629E-01          9.75084E-01
      -6601     1.33121E+01    -1.14257E+01     0.00000E+00    -6.22907E-01          6.37568E-01
      -6600     1.33080E+01    -1.14240E+01     0.00000E+00     5.32831E-01         -4.37569E-02
      -6599     1.33040E+01    -1.14222E+01     0.00000E+00    -2.20033E-01          4.44196E-01
      -6598     1.33000E+01    -1.14205E+01     0.00000E+00    -2.27815E-01          6.22931E-02
      -6597     1.32959E+01    -1.14188E+01     0.00000E+00    -4.03467E-01         -8.02012E-01
      -6596     1.32919E+01    -1.14170E+01     0.00000E+00    -2.68968E-01          2.44902E-01
      -6595     1.32879E+01    -1.14153E+01     0.00000E+00     1.95980E-01         -1.78765E-01
      -6594     1.32838E+01    -1.14136E+01     0.00000E+00     1.15327E-01          5.78300E-01
      -6593     1.32798E+01    -1.14119E+01     0.00000E+00     6.74869E-02          6.52382E-01
      -6592     1.32758E+01    -1.14101E+01     0.00000E+00     5.77229E-01          8.39868E-01
      -6591     1.32718E+01    -1.14084E+01     0.00000E+00     2.06653E-02         -9.52157E-02
      -6590     1.32677E+01    -1.14067E+01     0.00000E+00    -6.05305E-01          2.25269E-01
      -6589     1.32637E+01    -1.14049E+01     0.00000E+00     7.50660E-01          1.06689E+00
      -6588     1.32597E+01    -1.14032E+01     0.00000E+00     8.66722E-02         -3.08543E-01
      -6587     1.32557E+01    -1.14015E+01     0.00000E+00    -6.70897E-01          1.20923E+00
      -6586     1.32516E+01    -1.13997E+01     0.00000E+00     5.31652E-01          7.96811E-01
      -6585     1.32476E+01    -1.13980E+01     0.00000E+00     4.24241E-02          8.56188E-01
      -6584     1.32436E+01    -1.13963E+01     0.00000E+00    -7.01039E-01          1.30816E+00
      -6583     1.32396E+01    -1.13945E+01     0.00000E+00    -9.67294E-01         -4.50831E-01
      -6582     1.32355E+01    -1.13928E+01     0.00000E+00     1.33020E-01          3.46020E-01
      -6581     1.32315E+01    -1.13911E+01     0.00000E+00    -3.21845E-01          4.49691E-01
      -6580     1.32275E+01    -1.13894E+01     0.00000E+00    -6.10315E-03          2.21810E-01
      -6579     1.32235E+01    -1.13876E+01     0.00000E+00    -4.12746E-01         -4.87369E-01
      -6578     1.32195E+01    -1.13859E+01     0.00000E+00     7.36558E-01         -4.12812E-01
      -6577     1.32154E+01    -1.13842E+01     0.00000E+00    -3.01764E-01         -5.41339E-02
      -6576     1.32114E+01    -1.13824E+01     0.00000E+00    -6.79345E-01         -6.79323E-01
      -6575     1.32074E+01    -1.13807E+01     0.00000E+00    -2.97168E-01         -3.44200E-02
      -6574     1.32034E+01    -1.13790E+01     0.00000E+00     6.55791E-01         -2.53024E-01
      -6573     1.31994E+01    -1.13772E+01     0.00000E+00    -7.86806E-01         -4.35139E-01
      -6572     1.31954E+01    -1.13755E+01     0.00000E+00    -4.98939E-01         -1.03574E+00
      -6571     1.31913E+01    -1.13738E+01     0.00000E+00    -3.61642E-01         -1.23159E-01
      -6570     1.31873E+01    -1.13720E+01     0.00000E+00     9.75623E-01          2.76850E-01
      -6569     1.31833E+01    -1.13703E+01     0.00000E+00    -8.34764E-01          6.70915E-01
      -6568     1.31793E+01    -1.13686E+01     0.00000E+00    -1.02094E-02         -8.58329E-01
      -6567     1.31753E+01    -1.13669E+01     0.00000E+00    -6.63563E-01         -4.43989E-01
      -6566     1.31713E+01    -1.13651E+01     0.00000E+00     6.60246E-01         -1.88827E-01
      -6565     1.31673E+01    -1.13634E+01     0.00000E+00    -4.73446E-02         -3.37013E-01
      -6564     1.31632E+01    -1.13617E+01     0.00000E+00     2.88142E-01         -8.63558E-01
      -6563     1.31592E+01    -1.13599E+01     0.00000E+00     6.87050E-01          2.49749E-01
      -6562     1.31552E+01    -1.13582E+01     0.00000E+00    -4.51678E-01         -5.73384E-01
      -6561     1.31512E+01    -1.13565E+01     0.00000E+00     9.58606E-01          4.94164E-01
      -6560     1.31472E+01    -1.13547E+01     0.00000E+00    -3.36522E-01         -6.34644E-01
      -6559     1.31432E+01    -1.13530E+01     0.00000E+00    -3.79144E-01         -5.33794E-01
      -6558     1.31392E+01    -1.13513E+01     0.00000E+00     2.49698E-01         -1.62687E-01
[...]
       7056     1.52105E+01     1.22133E+01     0.00000E+00    -4.47382E-01          2.40830E-01
       7057     1.52148E+01     1.22150E+01     0.00000E+00     3.40385E-01          1.83645E-01
       7058     1.52191E+01     1.22167E+01     0.00000E+00     4.62494E-02          1.01363E-01
       7059     1.52234E+01     1.22185E+01     0.00000E+00     5.83249E-01         -1.89506E-01
       7060     1.52277E+01     1.22202E+01     0.00000E+00     4.04551E-02         -5.88104E-02
       7061     1.52320E+01     1.22219E+01     0.00000E+00    -5.90512E-01         -1.15583E-01
       7062     1.52364E+01     1.22237E+01     0.00000E+00     1.43521E-01         -1.09288E+00
       7063     1.52407E+01     1.22254E+01     0.00000E+00    -6.21005E-01          6.90304E-01
       7064     1.52450E+01     1.22271E+01     0.00000E+00     5.30977E-02         -1.90646E-01
       7065     1.52493E+01     1.22288E+01     0.00000E+00    -1.24557E-01         -3.41339E-02
       7066     1.52536E+01     1.22306E+01     0.00000E+00    -1.97641E-01         -3.75564E-01
       7067     1.52579E+01     1.22323E+01     0.00000E+00     3.58550E-01          7.65158E-01
       7068     1.52623E+01     1.22340E+01     0.00000E+00     2.14079E-01          3.92150E-02
       7069     1.52666E+01     1.22358E+01     0.00000E+00    -3.50303E-01          1.11977E-01
       7070     1.52709E+01     1.22375E+01     0.00000E+00     7.66136E-01         -2.56505E-01
       7071     1.52752E+01     1.22392E+01     0.00000E+00     1.23069E-01          6.85465E-01
       7072     1.52795E+01     1.22410E+01     0.00000E+00     1.62416E-01         -2.26737E-01
       7073     1.52839E+01     1.22427E+01     0.00000E+00    -5.57676E-01          1.38393E-01
       7074     1.52882E+01     1.22444E+01     0.00000E+00     1.71012E-01         -3.00660E-01
       7075     1.52925E+01     1.22462E+01     0.00000E+00    -4.87418E-01          1.31390E-01
       7076     1.52968E+01     1.22479E+01     0.00000E+00     1.85222E-02         -1.16296E-01
       7077     1.53012E+01     1.22496E+01     0.00000E+00     4.46350E-01         -5.54805E-01
       7078     1.53055E+01     1.22513E+01     0.00000E+00     4.28412E-01         -8.52407E-01
       7079     1.53098E+01     1.22531E+01     0.00000E+00     7.38166E-01          5.11383E-04
       7080     1.53141E+01     1.22548E+01     0.00000E+00    -5.29397E-01         -1.28339E-01
       7081     1.53185E+01     1.22565E+01     0.00000E+00    -3.44216E-01          3.66468E-01
       7082     1.53228E+01     1.22583E+01     0.00000E+00    -3.22302E-01          1.14489E-01
       7083     1.53271E+01     1.22600E+01     0.00000E+00     3.26572E-01         -2.08561E-01
       7084     1.53314E+01     1.22617E+01     0.00000E+00     2.08913E-02          1.03404E-01
       7085     1.53358E+01     1.22635E+01     0.00000E+00    -4.79130E-02          6.03783E-01
       7086     1.53401E+01     1.22652E+01     0.00000E+00    -1.77615E-01         -1.71779E-01
       7087     1.53444E+01     1.22669E+01     0.00000E+00    -6.77646E-01         -3.71377E-01
       7088     1.53488E+01     1.22687E+01     0.00000E+00    -5.60227E-02          2.20669E-01
       7089     1.53531E+01     1.22704E+01     0.00000E+00     1.30398E-01          3.93428E-01
       7090     1.53574E+01     1.22721E+01     0.00000E+00    -1.01979E+00         -4.56096E-01
       7091     1.53618E+01     1.22738E+01     0.00000E+00     1.55148E-01         -4.28969E-01
       7092     1.53661E+01     1.22756E+01     0.00000E+00    -5.04767E-02         -2.05222E-01
       7093     1.53704E+01     1.22773E+01     0.00000E+00    -2.50471E-01         -2.66197E-02
       7094     1.53748E+01     1.22790E+01     0.00000E+00     9.24744E-02         -3.09124E-03
       7095     1.53791E+01     1.22808E+01     0.00000E+00    -8.02309E-01          7.54055E-02
       7096     1.53834E+01     1.22825E+01     0.00000E+00     9.88983E-01          5.48503E-01
       7097     1.53878E+01     1.22842E+01     0.00000E+00    -1.17019E-01          1.16213E-02
       7098     1.53921E+01     1.22860E+01     0.00000E+00    -1.62403E-01         -7.39649E-01
       7099     1.53964E+01     1.22877E+01     0.00000E+00     8.31383E-01         -1.23757E-01
       7100     1.54008E+01     1.22894E+01     0.00000E+00    -7.09266E-01          4.25434E-01
       7101     1.54051E+01     1.22912E+01     0.00000E+00     3.99894E-01         -5.77926E-01
       7102     1.54094E+01     1.22929E+01     0.00000E+00    -5.72961E-01          3.58832E-01
       7103     1.54138E+01     1.22946E+01     0.00000E+00     1.58786E-01         -5.82986E-01
       7104     1.54181E+01     1.22963E+01     0.00000E+00    -1.60187E-01         -1.73491E-01
       7105     1.54225E+01     1.22981E+01     0.00000E+00    -2.79432E-02         -5.42571E-01
       7106     1.54268E+01     1.22998E+01     0.00000E+00    -7.49505E-01          2.31286E-01
       7107     1.54312E+01     1.23015E+01     0.00000E+00     4.68035E-01         -4.70430E-02
       7108     1.54355E+01     1.23033E+01     0.00000E+00    -6.54470E-02         -3.50723E-01
       7109     1.54398E+01     1.23050E+01     0.00000E+00     7.95743E-02          1.07468E-01
       7110     1.54442E+01     1.23067E+01     0.00000E+00     6.00174E-02         -1.80839E-01
       7111     1.54485E+01     1.23085E+01     0.00000E+00    -6.10063E-02         -3.94897E-01
       7112     1.54529E+01     1.23102E+01     0.00000E+00    -2.27945E-02         -2.82948E-01
       7113     1.54572E+01     1.23119E+01     0.00000E+00     1.19110E-01         -3.14633E-01
       7114     1.54616E+01     1.23137E+01     0.00000E+00    -7.26919E-01         -6.39086E-02
       7115     1.54659E+01     1.23154E+01     0.00000E+00    -3.54402E-01          5.76511E-01
       7116     1.54703E+01     1.23171E+01     0.00000E+00     7.53910E-02          3.77455E-01
       7117     1.54746E+01     1.23189E+01     0.00000E+00     4.03850E-02          2.96120E-01
       7118     1.54790E+01     1.23206E+01     0.00000E+00    -5.02309E-01          1.14861E-01
       7119     1.54833E+01     1.23223E+01     0.00000E+00    -1.62496E-01          2.46414E-01
       7120     1.54877E+01     1.23240E+01     0.00000E+00    -3.79955E-01          9.89952E-03
       7121     1.54920E+01     1.23258E+01     0.00000E+00     4.97997E-01         -5.23143E-02
       7122     1.54964E+01     1.23275E+01     0.00000E+00     6.45872E-01          3.57786E-01
       7123     1.55007E+01     1.23292E+01     0.00000E+00     4.17376E-01         -7.52201E-02
       7124     1.55051E+01     1.23310E+01     0.00000E+00    -4.41906E-02         -5.65448E-01
       7125     1.55094E+01     1.23327E+01     0.00000E+00    -3.70630E-01          2.27464E-01
       7126     1.55138E+01     1.23344E+01     0.00000E+00     2.57708E-01         -6.98744E-02
       7127     1.55181E+01     1.23362E+01     0.00000E+00    -4.42791E-01          8.82898E-02
       7128     1.55225E+01     1.23379E+01     0.00000E+00     5.42728E-01          3.62490E-01
       7129     1.55268E+01     1.23396E+01     0.00000E+00     5.26680E-01         -1.66805E-01
       7130     1.55312E+01     1.23414E+01     0.00000E+00    -3.43533E-01         -1.74234E-01
       7131     1.55356E+01     1.23431E+01     0.00000E+00     2.70705E-02         -9.42830E-02
       7132     1.55399E+01     1.23448E+01     0.00000E+00    -3.31517E-01          4.72975E-01
       7133     1.55443E+01     1.23465E+01     0.00000E+00     3.75433E-01          4.70221E-01
       7134     1.55486E+01     1.23483E+01     0.00000E+00    -6.13646E-02         -1.12532E-01
       7135     1.55530E+01     1.23500E+01     0.00000E+00    -1.40894E-01         -2.35514E-01
       7136     1.55573E+01     1.23517E+01     0.00000E+00     4.26469E-01         -5.86500E-01
       7137     1.55617E+01     1.23535E+01     0.00000E+00    -4.98539E-01         -4.77658E-01
       7138     1.55661E+01     1.23552E+01     0.00000E+00     7.28932E-02          2.40305E-02
       7139     1.55704E+01     1.23569E+01     0.00000E+00     3.02076E-01         -5.57208E-01
       7140     1.55748E+01     1.23587E+01     0.00000E+00    -5.48327E-01         -9.41148E-02
       7141     1.55792E+01     1.23604E+01     0.00000E+00     4.10943E-01         -3.60193E-01
       7142     1.55835E+01     1.23621E+01     0.00000E+00    -1.14944E-01          1.02239E+00
       7143     1.55879E+01     1.23639E+01     0.00000E+00    -3.50631E-01          5.03073E-01
       7144     1.55922E+01     1.23656E+01     0.00000E+00     6.96414E-01          2.53528E-01
       7145     1.55966E+01     1.23673E+01     0.00000E+00    -2.94366E-01         -3.01283E-01
       7146     1.56010E+01     1.23690E+01     0.00000E+00    -1.76280E-01         -6.23487E-02
       7147     1.56053E+01     1.23708E+01     0.00000E+00     7.98049E-03         -6.15768E-01
       7148     1.56097E+01     1.23725E+01     0.00000E+00    -1.29805E-01          1.07391E+00
       7149     1.56141E+01     1.23742E+01     0.00000E+00    -6.92367E-01          2.52905E-01
       7150     1.56184E+01     1.23760E+01     0.00000E+00    -3.62662E-01          2.73299E-01
       7151     1.56228E+01     1.23777E+01     0.00000E+00    -6.37475E-01          5.09418E-02
       7152     1.56272E+01     1.23794E+01     0.00000E+00     1.87309E-01         -3.52218E-01
       7153     1.56316E+01     1.23812E+01     0.00000E+00     2.86447E-01          1.15206E-01
       7154     1.56359E+01     1.23829E+01     0.00000E+00    -7.32890E-01          2.84013E-01
       7155     1.56403E+01     1.23846E+01     0.00000E+00    -9.78403E-02          5.34845E-01
       7156     1.56447E+01     1.23864E+01     0.00000E+00     4.07950E-01          1.26866E-01
       7157     1.56490E+01     1.23881E+01     0.00000E+00     6.89218E-01         -4.03010E-01
       7158     1.56534E+01     1.23898E+01     0.00000E+00    -7.14441E-01         -4.72997E-01
       7159     1.56578E+01     1.23915E+01     0.00000E+00    -1.94195E-01         -3.47022E-02
       7160     1.56622E+01     1.23933E+01     0.00000E+00     2.47743E-01         -2.55416E-01
       7161     1.56665E+01     1.23950E+01     0.00000E+00    -3.28828E-02         -4.11063E-01
       7162     1.56709E+01     1.23967E+01     0.00000E+00     3.26985E-01         -1.33586E-01
       7163     1.56753E+01     1.23985E+01     0.00000E+00    -1.17785E-01          3.51096E-02
       7164     1.56797E+01     1.24002E+01     0.00000E+00     9.53117E-02         -4.20895E-01
       7165     1.56840E+01     1.24019E+01     0.00000E+00    -3.84189E-01         -4.90715E-01
       7166     1.56884E+01     1.24037E+01     0.00000E+00     1.97082E-01         -3.77171E-01
       7167     1.56928E+01     1.24054E+01     0.00000E+00     1.77497E-01          3.01703E-01
       7168     1.56972E+01     1.24071E+01     0.00000E+00     4.12170E-01         -1.94055E-01
       7169     1.57016E+01     1.24089E+01     0.00000E+00    -2.33783E-02         -2.77506E-01
       7170     1.57059E+01     1.24106E+01     0.00000E+00     2.17932E-02          1.25813E-01
       7171     1.57103E+01     1.24123E+01     0.00000E+00    -5.56658E-01          5.17759E-01
       7172     1.57147E+01     1.24141E+01     0.00000E+00    -3.60585E-01          7.55365E-01
       7173     1.57191E+01     1.24158E+01     0.00000E+00    -2.84229E-01         -1.80808E-01
       7174     1.57235E+01     1.24175E+01     0.00000E+00    -7.24666E-01         -1.82751E-01
       7175     1.57279E+01     1.24192E+01     0.00000E+00     1.50403E-01         -1.13120E-01
       7176     1.57322E+01     1.24210E+01     0.00000E+00    -7.14604E-01          3.11833E-01
       7177     1.57366E+01     1.24227E+01     0.00000E+00     4.68233E-02          5.60429E-01
       7178     1.57410E+01     1.24244E+01     0.00000E+00     1.69236E-01          1.97284E-01
       7179     1.57454E+01     1.24262E+01     0.00000E+00     3.18892E-01          3.40175E-02
       7180     1.57498E+01     1.24279E+01     0.00000E+00     2.55101E-01         -5.03933E-01
       7181     1.57542E+01     1.24296E+01     0.00000E+00     4.83338E-01         -3.21489E-01
       7182     1.57586E+01     1.24314E+01     0.00000E+00     9.06776E-03         -3.49328E-01
       7183     1.57630E+01     1.24331E+01     0.00000E+00    -3.71688E-01          1.27904E-01
       7184     1.57673E+01     1.24348E+01     0.00000E+00    -1.70160E-01          4.06974E-01
       7185     1.57717E+01     1.24366E+01     0.00000E+00    -6.64805E-01          1.68176E-01
       7186     1.57761E+01     1.24383E+01     0.00000E+00     3.31395E-01          5.05560E-01
       7187     1.57805E+01     1.24400E+01     0.00000E+00     7.15349E-02         -1.91594E-01
       7188     1.57849E+01     1.24417E+01     0.00000E+00    -3.96332E-01          7.31459E-02
       7189     1.57893E+01     1.24435E+01     0.00000E+00    -3.11563E-01          3.88170E-01
       7190     1.57937E+01     1.24452E+01     0.00000E+00     1.59722E-01          2.40891E-01
       7191     1.57981E+01     1.24469E+01     0.00000E+00     6.20481E-01         -5.90925E-01
       7192     1.58025E+01     1.24487E+01     0.00000E+00     3.05063E-01         -2.35915E-01
       7193     1.58069E+01     1.24504E+01     0.00000E+00    -2.80120E-02          3.35478E-02
       7194     1.58113E+01     1.24521E+01     0.00000E+00     4.80205E-02         -2.28754E-01
       7195     1.58157E+01     1.24539E+01     0.00000E+00     4.60023E-02          6.32647E-01
       7196     1.58201E+01     1.24556E+01     0.00000E+00    -3.96126E-01         -1.13362E-01
       7197     1.58245E+01     1.24573E+01     0.00000E+00     1.78363E-01          2.00187E-01
       7198     1.58289E+01     1.24591E+01     0.00000E+00    -1.76389E-01          2.25830E-01
       7199     1.58333E+01     1.24608E+01     0.00000E+00     7.22052E-02         -5.22550E-01
       7200     1.58377E+01     1.24625E+01     0.00000E+00     2.00814E-01          2.02906E-01
       7201     1.58421E+01     1.24642E+01     0.00000E+00    -1.11049E-01         -1.01148E+00
       7202     1.58465E+01     1.24660E+01     0.00000E+00     3.28257E-02          3.28348E-01
       7203     1.58509E+01     1.24677E+01     0.00000E+00    -1.64576E-01         -1.81925E-01
       7204     1.58553E+01     1.24694E+01     0.00000E+00    -1.20404E-01          3.09884E-02
       7205     1.58597E+01     1.24712E+01     0.00000E+00    -2.20497E-01          5.74050E-01
       7206     1.58641E+01     1.24729E+01     0.00000E+00     6.28350E-02          1.71008E-01
       7207     1.58685E+01     1.24746E+01     0.00000E+00    -1.45240E-01         -2.75593E-01
       7208     1.58729E+01     1.24764E+01     0.00000E+00     4.44227E-01         -1.02185E-01
       7209     1.58773E+01     1.24781E+01     0.00000E+00     2.70712E-01          1.50242E-01
       7210     1.58817E+01     1.24798E+01     0.00000E+00     1.20961E-01         -2.24161E-01
       7211     1.58861E+01     1.24816E+01     0.00000E+00     3.37480E-02         -1.48077E-01
       7212     1.58905E+01     1.24833E+01     0.00000E+00    -3.42876E-01          4.52627E-01
       7213     1.58949E+01     1.24850E+01     0.00000E+00    -1.95085E-01          3.39876E-01
       7214     1.58993E+01     1.24867E+01     0.00000E+00     1.91278E-01          6.13949E-03
       7215     1.59037E+01     1.24885E+01     0.00000E+00     8.36128E-02          4.79339E-01
       7216     1.59081E+01     1.24902E+01     0.00000E+00     2.70181E-01          1.12726E-01
       7217     1.59125E+01     1.24919E+01     0.00000E+00    -1.21289E-01         -1.02731E-01
       7218     1.59169E+01     1.24937E+01     0.00000E+00     3.83476E-01          7.61019E-02
       7219     1.59213E+01     1.24954E+01     0.00000E+00     2.28191E-01          4.76525E-01
       7220     1.59258E+01     1.24971E+01     0.00000E+00     1.76630E-01         -1.81990E-01
       7221     1.59302E+01     1.24989E+01     0.00000E+00    -3.97191E-01         -5.39605E-01
       7222     1.59346E+01     1.25006E+01     0.00000E+00    -1.21872E-01          6.69407E-01
       7223     1.59390E+01     1.25023E+01     0.00000E+00    -6.51455E-01          1.68448E-01
       7224     1.59434E+01     1.25041E+01     0.00000E+00     1.67482E-01         -4.49966E-01
       7225     1.59478E+01     1.25058E+01     0.00000E+00     2.10245E-01         -3.04042E-01
       7226     1.59522E+01     1.25075E+01     0.00000E+00     7.48740E-02         -2.86759E-01
       7227     1.59567E+01     1.25093E+01     0.00000E+00    -3.11498E-03          2.03084E-02
       7228     1.59611E+01     1.25110E+01     0.00000E+00    -2.26945E-01          3.10218E-01
       7229     1.59655E+01     1.25127E+01     0.00000E+00    -4.36310E-01          3.54408E-01
       7230     1.59699E+01     1.25144E+01     0.00000E+00    -3.15740E-01         -2.52977E-01
       7231     1.59743E+01     1.25162E+01     0.00000E+00     1.81337E-01         -4.40913E-01
       7232     1.59787E+01     1.25179E+01     0.00000E+00     3.49765E-01          5.45196E-03
       7233     1.59832E+01     1.25196E+01     0.00000E+00     4.69976E-01          5.19682E-01
       7234     1.59876E+01     1.25214E+01     0.00000E+00    -2.71921E-01          1.79141E-01
       7235     1.59920E+01     1.25231E+01     0.00000E+00     1.73879E-01         -8.34696E-01
       7236     1.59964E+01     1.25248E+01     0.00000E+00    -2.06215E-01         -1.48411E-01
       7237     1.60008E+01     1.25266E+01     0.00000E+00    -7.93543E-01          3.68544E-01
       7238     1.60053E+01     1.25283E+01     0.00000E+00    -7.30045E-01          2.27572E-01
       7239     1.60097E+01     1.25300E+01     0.00000E+00    -6.85944E-02         -7.53059E-01
       7240     1.60141E+01     1.25318E+01     0.00000E+00     3.76526E-01         -5.78886E-01
       7241     1.60185E+01     1.25335E+01     0.00000E+00    -2.23219E-01         -4.78613E-01
       7242     1.60230E+01     1.25352E+01     0.00000E+00    -5.40626E-01          4.21029E-01
       7243     1.60274E+01     1.25369E+01     0.00000E+00     4.01813E-01          2.45691E-01
       7244     1.60318E+01     1.25387E+01     0.00000E+00     2.93156E-01          7.74190E-02
       7245     1.60362E+01     1.25404E+01     0.00000E+00    -8.47452E-01         -3.27520E-02
       7246     1.60407E+01     1.25421E+01     0.00000E+00     6.71774E-02          2.55764E-01
       7247     1.60451E+01     1.25439E+01     0.00000E+00     3.16778E-01          3.72746E-01
       7248     1.60495E+01     1.25456E+01     0.00000E+00    -4.24909E-01         -1.54009E-01
       7249     1.60540E+01     1.25473E+01     0.00000E+00    -6.47435E-02          2.75427E-01
       7250     1.60584E+01     1.25491E+01     0.00000E+00     1.12655E+00          2.38034E-02
       7251     1.60628E+01     1.25508E+01     0.00000E+00     6.10001E-01         -4.61004E-01
       7252     1.60672E+01     1.25525E+01     0.00000E+00     3.37357E-01          5.80109E-01
       7253     1.60717E+01     1.25543E+01     0.00000E+00     5.19968E-01          4.50408E-01
       7254     1.60761E+01     1.25560E+01     0.00000E+00    -9.22472E-01         -5.47698E-01
       7255     1.60805E+01     1.25577E+01     0.00000E+00     6.07430E-01         -1.10589E-01
       7256     1.60850E+01     1.25594E+01     0.00000E+00     3.32474E-01         -3.10913E-01
       7257     1.60894E+01     1.25612E+01     0.00000E+00     1.58721E-01         -2.37569E-02
       7258     1.60938E+01     1.25629E+01     0.00000E+00     1.90704E-01         -1.27910E-01
       7259     1.60983E+01     1.25646E+01     0.00000E+00    -4.35512E-01         -6.80518E-02
       7260     1.61027E+01     1.25664E+01     0.00000E+00     0.00000E+00          0.00000E+00

This summary file was closed on 10-Nov-2020 at 10:04:35.

