MAP++ environment properties (set externally)...
    Gravity constant          [m/s^2]  : 9.81
    Sea density               [kg/m^3] : 1025.00
    Water depth               [m]      : 150.00
    Vessel reference position [m]      : 0.00 , 0.00 , 0.00

 **************************************************************************************************
 OpenFAST

 Copyright (C) 2022 National Renewable Energy Laboratory
 Copyright (C) 2022 Envision Energy USA LTD

 This program is licensed under Apache License Version 2.0 and comes with ABSOLUTELY NO WARRANTY.
 See the "LICENSE" file distributed with this software for details.
 **************************************************************************************************

 OpenFAST-v3.1.0-243-ge6028eae
 Compile Info:
  - Compiler: GCC version 10.4.0
  - Architecture: 64 bit
  - Precision: double
  - OpenMP: No
  - Date: Jul  6 2022
  - Time: 19:16:34
 Execution Info:
  - Date: 07/06/2022
  - Time: 19:41:55-0500

 OpenFAST input file heading:
     FAST Certification Test #22: NREL 5.0 MW Baseline Wind Turbine with ITI Barge Configuration,
     for use in offshore analysis

 Running ElastoDyn.
 Nodal outputs section of ElastoDyn input file not found or improperly formatted.
 Running AeroDyn14.
  WARNING:   AeroDyn 14 is deprecated and will be removed in a future release.
 Running InflowWind.

    Reading a 31x31 grid (145 m wide, 17.5 m to 162.5 m above ground) with a characteristic wind
    speed of 12 m/s. This full-field file was generated by TurbSim (from
    OpenFAST-v3.0.0-98-g7bde6b54) on 14-Sep-2021 at 11:49:55.

    Processed 1442 time steps of 20-Hz full-field data (72.05 seconds).
 Running HydroDyn.
  Generating incident wave kinematics and current time history.
  Reading in WAMIT output with root name
  "/Users/rmudafor/Development/openfast_forks/bonnie/build/reg_tests/glue-codes/openfast/5MW_ITIBar
  ge_DLL_WTurb_WavesIrr/../5MW_Baseline/HydroData/Barge".
  Computing radiation impulse response functions and wave diffraction forces.

 Using SS_Radiation Module, with 30 of 30 radiation states


 Running ServoDyn.
 Running ServoDyn Interface for Bladed Controllers (using GNU Fortran for Linux).
 Using legacy Bladed DLL interface.

 FAST_InitializeAll:HydroDyn_Init:Waves_Init:VariousWaves_Init: The random number generator in use
 differs from the original code provided by NREL. This pRNG uses 8 seeds instead of the 2 in the
 HydroDyn input file.

  Time: 0 of 60 seconds.
                                                                                                   Time: 10 of 60 seconds.  Estimated final completion at 19:42:27.                                                                                                                                    Time: 20 of 60 seconds.  Estimated final completion at 19:42:26.                                                                                                                                    Time: 30 of 60 seconds.  Estimated final completion at 19:42:25.                                                                                                                                    Time: 40 of 60 seconds.  Estimated final completion at 19:42:26.                                                                                                                                    Time: 50 of 60 seconds.  Estimated final completion at 19:42:27.                                                                                                                                    Time: 60 of 60 seconds.  Estimated final completion at 19:42:27.                                                                                                                                   
  Total Real Time:       31.974 seconds
  Total CPU Time:        31.686 seconds
  Simulation CPU Time:   31.026 seconds
  Simulated Time:        60 seconds
  Time Ratio (Sim/CPU):  1.9339

  OpenFAST terminated normally.

