MAP++ environment properties (set externally)...
    Gravity constant          [m/s^2]  : 9.81
    Sea density               [kg/m^3] : 1025.00
    Water depth               [m]      : 150.00
    Vessel reference position [m]      : 0.00 , 0.00 , 0.00

 **************************************************************************************************
 OpenFAST

 Copyright (C) 2021 National Renewable Energy Laboratory
 Copyright (C) 2021 Envision Energy USA LTD

 This program is licensed under Apache License Version 2.0 and comes with ABSOLUTELY NO WARRANTY.
 See the "LICENSE" file distributed with this software for details.
 **************************************************************************************************

 OpenFAST-v2.5.0-480-g1082ba16-dirty
 Compile Info:
  - Compiler: GCC version 10.2.0
  - Architecture: 64 bit
  - Precision: double
  - Date: Jan 22 2021
  - Time: 15:11:08
 Execution Info:
  - Date: 01/28/2021
  - Time: 09:44:00-0700

 OpenFAST input file heading:
     FAST Certification Test #22: NREL 5.0 MW Baseline Wind Turbine with ITI Barge Configuration,
     for use in offshore analysis

 Running ElastoDyn.
 Nodal outputs section of ElastoDyn input file not found or improperly formatted.
 Running AeroDyn14.
 Running InflowWind.

    Reading a 31x31 grid (145 m wide, 17.5 m to 162.5 m above ground) with a characteristic wind
    speed of 12 m/s. This full-field file was generated by TurbSim (v1.06.00, 21-Sep-2012) on
    07-Jan-2014 at 12:50:45.

    Processed 1442 time steps of 20-Hz full-field data (72.05 seconds).
 Running ServoDyn.
 Running ServoDyn Interface for Bladed Controllers (using GNU Fortran for Linux, ).
 Using legacy Bladed DLL interface.
 Running HydroDyn.
  Generating incident wave kinematics and current time history.
  Reading in WAMIT output with root name
  "/Users/aplatt/software-development/GitHub/openfast-4/build-DP-gcc10/reg_tests/glue-codes/openfas
  t/5MW_ITIBarge_DLL_WTurb_WavesIrr/../5MW_Baseline/HydroData/Barge".
  Computing radiation impulse response functions and wave diffraction forces.

 Using SS_Radiation Module, with 30 of 30 radiation states



 FAST_InitializeAll:HydroDyn_Init:Waves_Init:VariousWaves_Init: The random number generator in use
 differs from the original code provided by NREL. This pRNG uses 8 seeds instead of the 2 in the
 HydroDyn input file.

  Time: 0 of 60 seconds.

 FAST_Solution0:CalcOutputs_And_SolveForInputs:SolveOption2:SrvD_CalcOutput:DLL_controller_call:Run
 ning with torque and pitch control of the NREL offshore 5MW baseline wind turbine from DISCON.dll
 as written by J. Jonkman of NREL/NWTC for use in the IEA Annex XXIII OC3 studies. Includes
 modifications for ITI Barge.

                                                                                                   Time: 10 of 60 seconds.  Estimated final completion at 09:45:14.                                                                                                                                    Time: 20 of 60 seconds.  Estimated final completion at 09:45:22.                                                                                                                                    Time: 30 of 60 seconds.  Estimated final completion at 09:45:30.                                                                                                                                    Time: 40 of 60 seconds.  Estimated final completion at 09:45:30.                                                                                                                                    Time: 50 of 60 seconds.  Estimated final completion at 09:45:18.                                                                                                                                    Time: 60 of 60 seconds.  Estimated final completion at 09:45:17.                                                                                                                                   
  Total Real Time:       1.2716 minutes
  Total CPU Time:        1.1687 minutes
  Simulation CPU Time:   1.145 minutes
  Simulated Time:        1 minutes
  Time Ratio (Sim/CPU):  0.87334

  OpenFAST terminated normally.

