
This summary file was generated by HydroDyn  on 30-Sep-2017 at 10:31:43.

WAMIT Model
-----------
  Displaced volume (m^3)                 :     6.000000E+03
  X-offset of the center of buoyancy (m) :     0.000000E+00
  Y-offset of the center of buoyancy (m) :     0.000000E+00


  Buoyancy loads from members modelled with WAMIT, summed about ( 0.0, 0.0, 0.0 )
                                BuoyFxi               BuoyFyi               BuoyFzi               BuoyMxi               BuoyMyi               BuoyMzi 
                                  (N)                   (N)                   (N)                  (N-m)                 (N-m)                 (N-m)  
  External:                 0.000000E+00          0.000000E+00          6.031090E+07          0.000000E+00         -0.000000E+00          0.000000E+00



Volume Calculations(m^3)
------------------------
  Structure Volume     :    0.00000E+00
  Submerged Volume     :    0.00000E+00
  Marine Growth Volume :    0.00000E+00
  Ballasted Volume     :    0.00000E+00
              NOTE: Structure, Submerged and Marine Growth volumes are based on members not modelled with WAMIT
                      Ballasted volume is computed from all members which are marked as filled in the HydroDyn input file, regardless of PropPot flag



Buoyancy loads summed about ( 0.0, 0.0, 0.0 )
---------------------------------------------
                                BuoyFxi               BuoyFyi               BuoyFzi               BuoyMxi               BuoyMyi               BuoyMzi 
                                  (N)                   (N)                   (N)                  (N-m)                 (N-m)                 (N-m)  
 External:                  0.000000E+00          0.000000E+00          0.000000E+00          0.000000E+00          0.000000E+00          0.000000E+00
 Internal:                  0.000000E+00          0.000000E+00          0.000000E+00          0.000000E+00          0.000000E+00          0.000000E+00
 Total   :                  0.000000E+00          0.000000E+00          0.000000E+00          0.000000E+00          0.000000E+00          0.000000E+00
              NOTE: External buoyancy is based on members not modelled with WAMIT
                      Internal buoyancy is computed from all members which are marked as filled in the HydroDyn input file, regardless of PropPot flag
                    Total buoyancy does not include WAMIT-modelled buoyancy contribution



Weight loads about ( 0.0, 0.0, 0.0 )
------------------------------------
                                 MGFxi                 MGFyi                 MGFzi                 MGMxi                 MGMyi                 MGMzi  
                                  (N)                   (N)                   (N)                  (N-m)                 (N-m)                 (N-m)  
 Marine Growth:             0.000000E+00          0.000000E+00          0.000000E+00          0.000000E+00          0.000000E+00          0.000000E+00



Nodes


   i    JointIndx   JointOvrlp  InpMbrIndx     Nxi         Nyi         Nzi      InpMbrDist       R         dRdZ         t          tMG        MGDens      PropPot   FilledFlag   FillDens   FillFSLoc       Cd          Ca          Cp         AxCa        AxCp        JAxCd       JAxCa       JAxCp    NConn  Connection List
  (-)      (-)         (-)         (-)         (m)         (m)         (m)          (-)         (m)         (-)        (m)         (m)       (kg/m^3)      (-)         (-)       (kg/m^3)       (-)         (-)         (-)         (-)         (-)         (-)         (-)         (-)         (-)      (-)                  
     1           1           0           1      0.0000      0.0000     -4.0000      0.0000   2.257E+01   0.000E+00   1.000E-04   0.000E+00   0.000E+00           T           F   0.000E+00   0.000E+00   1.000E+00   0.000E+00   1.000E+00   1.000E+00   1.000E+00   0.000E+00   0.000E+00   1.000E+00      1     1
     2           2           0           1      0.0000      0.0000      0.0000      1.0000   2.257E+01   0.000E+00   1.000E-04   0.000E+00   0.000E+00           T           F   0.000E+00   0.000E+00   1.000E+00   0.000E+00   1.000E+00   1.000E+00   1.000E+00   0.000E+00   0.000E+00   1.000E+00      1     8
     3          -1           0           1      0.0000      0.0000     -3.5000      0.1250   2.257E+01   0.000E+00   1.000E-04   0.000E+00   0.000E+00           T           F   0.000E+00   0.000E+00   1.000E+00   0.000E+00   1.000E+00   1.000E+00   1.000E+00   0.000E+00   0.000E+00   0.000E+00      2     1     2
     4          -1           0           1      0.0000      0.0000     -3.0000      0.2500   2.257E+01   0.000E+00   1.000E-04   0.000E+00   0.000E+00           T           F   0.000E+00   0.000E+00   1.000E+00   0.000E+00   1.000E+00   1.000E+00   1.000E+00   0.000E+00   0.000E+00   0.000E+00      2     2     3
     5          -1           0           1      0.0000      0.0000     -2.5000      0.3750   2.257E+01   0.000E+00   1.000E-04   0.000E+00   0.000E+00           T           F   0.000E+00   0.000E+00   1.000E+00   0.000E+00   1.000E+00   1.000E+00   1.000E+00   0.000E+00   0.000E+00   0.000E+00      2     3     4
     6          -1           0           1      0.0000      0.0000     -2.0000      0.5000   2.257E+01   0.000E+00   1.000E-04   0.000E+00   0.000E+00           T           F   0.000E+00   0.000E+00   1.000E+00   0.000E+00   1.000E+00   1.000E+00   1.000E+00   0.000E+00   0.000E+00   0.000E+00      2     4     5
     7          -1           0           1      0.0000      0.0000     -1.5000      0.6250   2.257E+01   0.000E+00   1.000E-04   0.000E+00   0.000E+00           T           F   0.000E+00   0.000E+00   1.000E+00   0.000E+00   1.000E+00   1.000E+00   1.000E+00   0.000E+00   0.000E+00   0.000E+00      2     5     6
     8          -1           0           1      0.0000      0.0000     -1.0000      0.7500   2.257E+01   0.000E+00   1.000E-04   0.000E+00   0.000E+00           T           F   0.000E+00   0.000E+00   1.000E+00   0.000E+00   1.000E+00   1.000E+00   1.000E+00   0.000E+00   0.000E+00   0.000E+00      2     6     7
     9          -1           0           1      0.0000      0.0000     -0.5000      0.8750   2.257E+01   0.000E+00   1.000E-04   0.000E+00   0.000E+00           T           F   0.000E+00   0.000E+00   1.000E+00   0.000E+00   1.000E+00   1.000E+00   1.000E+00   0.000E+00   0.000E+00   0.000E+00      2     7     8



Elements


   i    node1  node2      Length       Volume       MGVolume          R1          tMG1           t1             R2          tMG2           t2          MGDens1       MGDens2        PropPot     FilledFlag   FillDensity    FillFSLoc     FillMass         Cd1            Ca1          Cp1          AxCa1         AxCp1        JAxCd1        JAxCa1        JAxCp1          Cd2           Ca2           Cp2          AxCa2         AxCp2        JAxCd2        JAxCa2        JAxCp2   
  (-)    (-)    (-)        (m)         (m^3)         (m^3)           (m)           (m)           (m)           (m)           (m)           (m)        (kg/m^3)      (kg/m^3)         (-)           (-)        (kg/m^3)         (-)          (kg)           (-)            (-)          (-)           (-)           (-)           (-)           (-)           (-)           (-)            (-)          (-)           (-)           (-)           (-)           (-)           (-)    
     1      1      3   5.00000E-01   0.00000E+00   0.00000E+00   2.25676E+01   0.00000E+00   1.00000E-04   2.25676E+01   0.00000E+00   1.00000E-04   0.00000E+00   0.00000E+00             T             F   0.00000E+00   0.00000E+00   0.00000E+00   1.00000E+00   0.00000E+00   1.00000E+00   1.00000E+00   1.00000E+00   0.00000E+00   0.00000E+00   1.00000E+00   1.00000E+00   0.00000E+00   1.00000E+00   1.00000E+00   1.00000E+00   0.00000E+00   0.00000E+00   0.00000E+00
     2      3      4   5.00000E-01   0.00000E+00   0.00000E+00   2.25676E+01   0.00000E+00   1.00000E-04   2.25676E+01   0.00000E+00   1.00000E-04   0.00000E+00   0.00000E+00             T             F   0.00000E+00   0.00000E+00   0.00000E+00   1.00000E+00   0.00000E+00   1.00000E+00   1.00000E+00   1.00000E+00   0.00000E+00   0.00000E+00   0.00000E+00   1.00000E+00   0.00000E+00   1.00000E+00   1.00000E+00   1.00000E+00   0.00000E+00   0.00000E+00   0.00000E+00
     3      4      5   5.00000E-01   0.00000E+00   0.00000E+00   2.25676E+01   0.00000E+00   1.00000E-04   2.25676E+01   0.00000E+00   1.00000E-04   0.00000E+00   0.00000E+00             T             F   0.00000E+00   0.00000E+00   0.00000E+00   1.00000E+00   0.00000E+00   1.00000E+00   1.00000E+00   1.00000E+00   0.00000E+00   0.00000E+00   0.00000E+00   1.00000E+00   0.00000E+00   1.00000E+00   1.00000E+00   1.00000E+00   0.00000E+00   0.00000E+00   0.00000E+00
     4      5      6   5.00000E-01   0.00000E+00   0.00000E+00   2.25676E+01   0.00000E+00   1.00000E-04   2.25676E+01   0.00000E+00   1.00000E-04   0.00000E+00   0.00000E+00             T             F   0.00000E+00   0.00000E+00   0.00000E+00   1.00000E+00   0.00000E+00   1.00000E+00   1.00000E+00   1.00000E+00   0.00000E+00   0.00000E+00   0.00000E+00   1.00000E+00   0.00000E+00   1.00000E+00   1.00000E+00   1.00000E+00   0.00000E+00   0.00000E+00   0.00000E+00
     5      6      7   5.00000E-01   0.00000E+00   0.00000E+00   2.25676E+01   0.00000E+00   1.00000E-04   2.25676E+01   0.00000E+00   1.00000E-04   0.00000E+00   0.00000E+00             T             F   0.00000E+00   0.00000E+00   0.00000E+00   1.00000E+00   0.00000E+00   1.00000E+00   1.00000E+00   1.00000E+00   0.00000E+00   0.00000E+00   0.00000E+00   1.00000E+00   0.00000E+00   1.00000E+00   1.00000E+00   1.00000E+00   0.00000E+00   0.00000E+00   0.00000E+00
     6      7      8   5.00000E-01   0.00000E+00   0.00000E+00   2.25676E+01   0.00000E+00   1.00000E-04   2.25676E+01   0.00000E+00   1.00000E-04   0.00000E+00   0.00000E+00             T             F   0.00000E+00   0.00000E+00   0.00000E+00   1.00000E+00   0.00000E+00   1.00000E+00   1.00000E+00   1.00000E+00   0.00000E+00   0.00000E+00   0.00000E+00   1.00000E+00   0.00000E+00   1.00000E+00   1.00000E+00   1.00000E+00   0.00000E+00   0.00000E+00   0.00000E+00
     7      8      9   5.00000E-01   0.00000E+00   0.00000E+00   2.25676E+01   0.00000E+00   1.00000E-04   2.25676E+01   0.00000E+00   1.00000E-04   0.00000E+00   0.00000E+00             T             F   0.00000E+00   0.00000E+00   0.00000E+00   1.00000E+00   0.00000E+00   1.00000E+00   1.00000E+00   1.00000E+00   0.00000E+00   0.00000E+00   0.00000E+00   1.00000E+00   0.00000E+00   1.00000E+00   1.00000E+00   1.00000E+00   0.00000E+00   0.00000E+00   0.00000E+00
     8      9      2   5.00000E-01   0.00000E+00   0.00000E+00   2.25676E+01   0.00000E+00   1.00000E-04   2.25676E+01   0.00000E+00   1.00000E-04   0.00000E+00   0.00000E+00             T             F   0.00000E+00   0.00000E+00   0.00000E+00   1.00000E+00   0.00000E+00   1.00000E+00   1.00000E+00   1.00000E+00   0.00000E+00   0.00000E+00   0.00000E+00   1.00000E+00   0.00000E+00   1.00000E+00   1.00000E+00   1.00000E+00   0.00000E+00   0.00000E+00   1.00000E+00



Requested Member Outputs


   Label         Xi          Yi          Zi      InpMbrIndx   StartXi     StartYi     StartZi      EndXi       EndYi       EndZi        Loc    
    (-)          (m)         (m)         (m)        (-)         (m)         (m)         (m)         (m)         (m)         (m)         (-)    



 Requested Joint Outputs


   Label         Xi          Yi          Zi      InpJointID
    (-)          (m)         (m)         (m)        (-)    



 Wave Kinematics


       m              k          Omega[m]       Direction    REAL(DFT{WaveElev})  IMAG(DFT{WaveElev})
      (-)           (1/m)        (rad/s)          (deg)             (m)                  (m)         
      -7259     1.60983E+01    -1.25646E+01     0.00000E+00     7.02607E-02         -5.86068E-02
      -7258     1.60938E+01    -1.25629E+01     0.00000E+00    -7.49346E-01          7.04546E-01
      -7257     1.60894E+01    -1.25612E+01     0.00000E+00     1.44628E-01          5.67727E-01
      -7256     1.60850E+01    -1.25594E+01     0.00000E+00    -6.55001E-02         -6.24365E-03
      -7255     1.60805E+01    -1.25577E+01     0.00000E+00    -2.05058E-01         -2.34122E-02
      -7254     1.60761E+01    -1.25560E+01     0.00000E+00    -1.69422E-01          2.02639E-01
      -7253     1.60717E+01    -1.25543E+01     0.00000E+00    -3.25433E-01         -1.25342E-01
      -7252     1.60672E+01    -1.25525E+01     0.00000E+00    -2.32026E-01          7.88833E-01
      -7251     1.60628E+01    -1.25508E+01     0.00000E+00     3.15678E-01         -5.58920E-02
      -7250     1.60584E+01    -1.25491E+01     0.00000E+00    -4.59578E-02          1.74991E-01
      -7249     1.60540E+01    -1.25473E+01     0.00000E+00     3.82300E-01          2.50260E-01
      -7248     1.60495E+01    -1.25456E+01     0.00000E+00    -2.98014E-01         -3.44319E-01
      -7247     1.60451E+01    -1.25439E+01     0.00000E+00    -1.60183E-01          2.05699E-01
      -7246     1.60407E+01    -1.25421E+01     0.00000E+00    -5.06642E-03         -1.10280E-01
      -7245     1.60362E+01    -1.25404E+01     0.00000E+00    -1.01281E-01          3.47588E-01
      -7244     1.60318E+01    -1.25387E+01     0.00000E+00    -8.10339E-01         -5.66301E-02
      -7243     1.60274E+01    -1.25369E+01     0.00000E+00     1.22623E-01         -2.22197E-01
      -7242     1.60230E+01    -1.25352E+01     0.00000E+00    -9.49428E-02          2.04646E-01
      -7241     1.60185E+01    -1.25335E+01     0.00000E+00     5.06155E-01         -7.60256E-01
      -7240     1.60141E+01    -1.25318E+01     0.00000E+00     2.37114E-01         -1.42404E-01
      -7239     1.60097E+01    -1.25300E+01     0.00000E+00     2.51226E-01         -6.23188E-01
      -7238     1.60053E+01    -1.25283E+01     0.00000E+00    -9.83175E-02         -2.50330E-01
      -7237     1.60008E+01    -1.25266E+01     0.00000E+00    -2.12263E-01         -4.87918E-01
      -7236     1.59964E+01    -1.25248E+01     0.00000E+00     6.63081E-01         -1.68517E-01
      -7235     1.59920E+01    -1.25231E+01     0.00000E+00    -2.32810E-01          5.04118E-01
      -7234     1.59876E+01    -1.25214E+01     0.00000E+00     2.79772E-02         -1.12508E-01
      -7233     1.59832E+01    -1.25196E+01     0.00000E+00     6.55350E-02          2.82606E-01
      -7232     1.59787E+01    -1.25179E+01     0.00000E+00    -2.31069E-01          4.66574E-01
      -7231     1.59743E+01    -1.25162E+01     0.00000E+00    -7.80439E-01          2.29306E-02
      -7230     1.59699E+01    -1.25144E+01     0.00000E+00     1.11875E+00         -3.27785E-01
      -7229     1.59655E+01    -1.25127E+01     0.00000E+00     2.11281E-01          2.86664E-01
      -7228     1.59611E+01    -1.25110E+01     0.00000E+00    -2.12931E-01         -8.83392E-02
      -7227     1.59567E+01    -1.25093E+01     0.00000E+00    -3.20273E-01          4.29012E-01
      -7226     1.59522E+01    -1.25075E+01     0.00000E+00     3.35866E-01          3.63640E-01
      -7225     1.59478E+01    -1.25058E+01     0.00000E+00     8.79561E-02         -3.56472E-01
      -7224     1.59434E+01    -1.25041E+01     0.00000E+00     1.57408E-01          9.05925E-02
      -7223     1.59390E+01    -1.25023E+01     0.00000E+00    -6.21923E-01         -4.54637E-01
      -7222     1.59346E+01    -1.25006E+01     0.00000E+00     5.57434E-01         -2.90820E-01
      -7221     1.59302E+01    -1.24989E+01     0.00000E+00    -6.00706E-01         -5.43114E-02
      -7220     1.59258E+01    -1.24971E+01     0.00000E+00     2.58009E-01          7.25400E-01
      -7219     1.59213E+01    -1.24954E+01     0.00000E+00     3.23015E-01          3.55877E-01
      -7218     1.59169E+01    -1.24937E+01     0.00000E+00    -3.78703E-01         -5.78452E-02
      -7217     1.59125E+01    -1.24919E+01     0.00000E+00    -3.33090E-01          8.62251E-03
      -7216     1.59081E+01    -1.24902E+01     0.00000E+00     3.95012E-01          4.86122E-01
      -7215     1.59037E+01    -1.24885E+01     0.00000E+00     1.78100E-01         -3.46202E-01
      -7214     1.58993E+01    -1.24867E+01     0.00000E+00     1.93084E-01          2.65545E-01
      -7213     1.58949E+01    -1.24850E+01     0.00000E+00    -3.66463E-01         -5.83406E-02
      -7212     1.58905E+01    -1.24833E+01     0.00000E+00     6.50996E-01          1.20916E-01
      -7211     1.58861E+01    -1.24816E+01     0.00000E+00     2.24052E-01          7.48804E-02
      -7210     1.58817E+01    -1.24798E+01     0.00000E+00    -4.89569E-01          4.11975E-01
      -7209     1.58773E+01    -1.24781E+01     0.00000E+00    -5.29552E-01          2.25887E-01
      -7208     1.58729E+01    -1.24764E+01     0.00000E+00    -1.93595E-01          4.45474E-02
      -7207     1.58685E+01    -1.24746E+01     0.00000E+00    -1.53920E-01          4.39926E-01
      -7206     1.58641E+01    -1.24729E+01     0.00000E+00     7.20156E-01         -3.97144E-01
      -7205     1.58597E+01    -1.24712E+01     0.00000E+00    -5.07562E-01          2.16864E-01
      -7204     1.58553E+01    -1.24694E+01     0.00000E+00     1.35054E-01          1.07641E-01
      -7203     1.58509E+01    -1.24677E+01     0.00000E+00     1.58172E-01          2.18648E-01
      -7202     1.58465E+01    -1.24660E+01     0.00000E+00     8.86805E-02          4.26674E-01
      -7201     1.58421E+01    -1.24642E+01     0.00000E+00     2.06329E-01         -1.99979E-01
      -7200     1.58377E+01    -1.24625E+01     0.00000E+00     3.11672E-02         -1.06004E-01
      -7199     1.58333E+01    -1.24608E+01     0.00000E+00    -2.37470E-01          1.60709E-01
      -7198     1.58289E+01    -1.24591E+01     0.00000E+00     3.69784E-01         -2.00718E-02
      -7197     1.58245E+01    -1.24573E+01     0.00000E+00     2.14496E-01          2.87726E-01
      -7196     1.58201E+01    -1.24556E+01     0.00000E+00     3.38677E-01          3.09888E-01
      -7195     1.58157E+01    -1.24539E+01     0.00000E+00     7.81187E-01          1.09268E-01
      -7194     1.58113E+01    -1.24521E+01     0.00000E+00    -4.25014E-01          2.03504E-01
      -7193     1.58069E+01    -1.24504E+01     0.00000E+00    -1.08049E+00          2.02549E-01
      -7192     1.58025E+01    -1.24487E+01     0.00000E+00     3.67535E-01         -3.19079E-01
      -7191     1.57981E+01    -1.24469E+01     0.00000E+00     1.36660E-01          3.71438E-01
      -7190     1.57937E+01    -1.24452E+01     0.00000E+00    -5.66753E-03          6.24395E-01
      -7189     1.57893E+01    -1.24435E+01     0.00000E+00     1.99771E-01         -2.61420E-01
      -7188     1.57849E+01    -1.24417E+01     0.00000E+00    -4.67599E-02          1.63160E-01
      -7187     1.57805E+01    -1.24400E+01     0.00000E+00     5.94850E-01          3.22007E-01
      -7186     1.57761E+01    -1.24383E+01     0.00000E+00     3.68805E-01         -4.03938E-01
      -7185     1.57717E+01    -1.24366E+01     0.00000E+00     1.05131E-01          3.28129E-01
      -7184     1.57673E+01    -1.24348E+01     0.00000E+00     7.34729E-02          3.38884E-02
      -7183     1.57630E+01    -1.24331E+01     0.00000E+00     2.78879E-01          7.81365E-02
      -7182     1.57586E+01    -1.24314E+01     0.00000E+00    -1.16310E-02         -2.99393E-01
      -7181     1.57542E+01    -1.24296E+01     0.00000E+00     8.35357E-01         -4.31166E-01
      -7180     1.57498E+01    -1.24279E+01     0.00000E+00     1.78922E-01         -3.70387E-02
      -7179     1.57454E+01    -1.24262E+01     0.00000E+00    -4.96403E-01          2.76260E-01
      -7178     1.57410E+01    -1.24244E+01     0.00000E+00     1.51111E-01          1.46359E-01
      -7177     1.57366E+01    -1.24227E+01     0.00000E+00    -3.31928E-01          1.55521E-01
      -7176     1.57322E+01    -1.24210E+01     0.00000E+00    -1.34941E-02         -7.17322E-02
      -7175     1.57279E+01    -1.24192E+01     0.00000E+00     2.88030E-01         -4.50796E-01
      -7174     1.57235E+01    -1.24175E+01     0.00000E+00    -4.73565E-02         -4.37536E-02
      -7173     1.57191E+01    -1.24158E+01     0.00000E+00     8.51772E-02          6.91372E-02
      -7172     1.57147E+01    -1.24141E+01     0.00000E+00    -1.99142E-01          2.02431E-03
      -7171     1.57103E+01    -1.24123E+01     0.00000E+00    -1.08700E+00          1.45759E-01
      -7170     1.57059E+01    -1.24106E+01     0.00000E+00    -1.31349E-01          3.55288E-01
      -7169     1.57016E+01    -1.24089E+01     0.00000E+00     6.27456E-01         -1.83359E-01
      -7168     1.56972E+01    -1.24071E+01     0.00000E+00     7.70394E-02         -1.15545E-01
      -7167     1.56928E+01    -1.24054E+01     0.00000E+00    -2.55476E-01          6.07902E-02
      -7166     1.56884E+01    -1.24037E+01     0.00000E+00     2.39567E-01         -6.94313E-02
      -7165     1.56840E+01    -1.24019E+01     0.00000E+00    -1.50835E-01          6.96567E-01
      -7164     1.56797E+01    -1.24002E+01     0.00000E+00    -1.72075E-01          3.69391E-01
      -7163     1.56753E+01    -1.23985E+01     0.00000E+00     3.49717E-01         -5.36094E-01
      -7162     1.56709E+01    -1.23967E+01     0.00000E+00    -6.49022E-02          3.73536E-01
      -7161     1.56665E+01    -1.23950E+01     0.00000E+00     1.06172E+00         -4.35224E-01
      -7160     1.56622E+01    -1.23933E+01     0.00000E+00    -6.32663E-02          4.07199E-01
      -7159     1.56578E+01    -1.23915E+01     0.00000E+00     7.18034E-01          2.11189E-01
      -7158     1.56534E+01    -1.23898E+01     0.00000E+00     1.24073E-01         -2.47277E-01
      -7157     1.56490E+01    -1.23881E+01     0.00000E+00     1.99296E-01          5.54775E-02
      -7156     1.56447E+01    -1.23864E+01     0.00000E+00    -1.83906E-01         -1.96007E-01
      -7155     1.56403E+01    -1.23846E+01     0.00000E+00     2.94579E-01          9.04418E-01
      -7154     1.56359E+01    -1.23829E+01     0.00000E+00     1.89179E-01         -1.04385E-01
      -7153     1.56316E+01    -1.23812E+01     0.00000E+00     3.45561E-01          3.01579E-01
      -7152     1.56272E+01    -1.23794E+01     0.00000E+00    -2.85901E-01         -2.05622E-01
      -7151     1.56228E+01    -1.23777E+01     0.00000E+00     5.94422E-01         -6.94522E-02
      -7150     1.56184E+01    -1.23760E+01     0.00000E+00     1.83460E-01         -7.19380E-02
      -7149     1.56141E+01    -1.23742E+01     0.00000E+00     5.41291E-01          1.46676E-01
      -7148     1.56097E+01    -1.23725E+01     0.00000E+00    -4.46875E-01         -2.65855E-01
      -7147     1.56053E+01    -1.23708E+01     0.00000E+00     1.29397E-01          4.11229E-01
      -7146     1.56010E+01    -1.23690E+01     0.00000E+00    -5.13386E-01         -3.04352E-02
      -7145     1.55966E+01    -1.23673E+01     0.00000E+00     2.82859E-01         -9.57109E-02
      -7144     1.55922E+01    -1.23656E+01     0.00000E+00    -1.58604E-01         -3.66090E-01
      -7143     1.55879E+01    -1.23639E+01     0.00000E+00     4.90720E-01         -1.03692E-01
      -7142     1.55835E+01    -1.23621E+01     0.00000E+00    -2.78828E-01          1.58843E-01
      -7141     1.55792E+01    -1.23604E+01     0.00000E+00     6.20144E-01         -1.75633E-01
      -7140     1.55748E+01    -1.23587E+01     0.00000E+00     5.30814E-01          4.29816E-01
      -7139     1.55704E+01    -1.23569E+01     0.00000E+00     1.31270E-01         -6.06359E-02
      -7138     1.55661E+01    -1.23552E+01     0.00000E+00    -4.11831E-01          3.08152E-02
      -7137     1.55617E+01    -1.23535E+01     0.00000E+00    -1.85378E-01          6.02502E-01
      -7136     1.55573E+01    -1.23517E+01     0.00000E+00    -1.67060E-01         -4.10793E-02
      -7135     1.55530E+01    -1.23500E+01     0.00000E+00     1.43086E-01         -6.68562E-03
      -7134     1.55486E+01    -1.23483E+01     0.00000E+00     7.36428E-01          3.30935E-01
      -7133     1.55443E+01    -1.23465E+01     0.00000E+00     6.98781E-01         -8.86961E-01
      -7132     1.55399E+01    -1.23448E+01     0.00000E+00     1.83189E-03         -5.28809E-01
      -7131     1.55356E+01    -1.23431E+01     0.00000E+00     1.55648E-01         -9.71873E-02
      -7130     1.55312E+01    -1.23414E+01     0.00000E+00    -2.81199E-01          5.10952E-01
      -7129     1.55268E+01    -1.23396E+01     0.00000E+00     4.78344E-01          2.27665E-01
      -7128     1.55225E+01    -1.23379E+01     0.00000E+00    -3.61975E-02         -4.74829E-01
      -7127     1.55181E+01    -1.23362E+01     0.00000E+00     1.86992E-01         -1.97128E-01
      -7126     1.55138E+01    -1.23344E+01     0.00000E+00    -5.82638E-01         -1.45684E-01
      -7125     1.55094E+01    -1.23327E+01     0.00000E+00     3.19263E-01         -2.63657E-01
      -7124     1.55051E+01    -1.23310E+01     0.00000E+00    -3.61077E-01          4.56833E-01
      -7123     1.55007E+01    -1.23292E+01     0.00000E+00    -7.47386E-03         -8.31079E-01
      -7122     1.54964E+01    -1.23275E+01     0.00000E+00     5.01422E-01          2.73551E-01
      -7121     1.54920E+01    -1.23258E+01     0.00000E+00     9.24781E-02          3.01375E-01
      -7120     1.54877E+01    -1.23240E+01     0.00000E+00    -3.66085E-01         -1.28650E+00
      -7119     1.54833E+01    -1.23223E+01     0.00000E+00     1.00878E-01         -7.37683E-01
      -7118     1.54790E+01    -1.23206E+01     0.00000E+00    -1.52374E-01         -2.13661E-02
      -7117     1.54746E+01    -1.23189E+01     0.00000E+00    -2.77196E-01         -5.71422E-01
      -7116     1.54703E+01    -1.23171E+01     0.00000E+00    -4.46949E-01         -6.48560E-01
      -7115     1.54659E+01    -1.23154E+01     0.00000E+00     3.94391E-01         -1.74956E-01
      -7114     1.54616E+01    -1.23137E+01     0.00000E+00     4.46195E-01          1.94704E-01
      -7113     1.54572E+01    -1.23119E+01     0.00000E+00     1.17369E-01         -3.47845E-01
      -7112     1.54529E+01    -1.23102E+01     0.00000E+00    -4.21731E-01          3.13211E-01
      -7111     1.54485E+01    -1.23085E+01     0.00000E+00     8.83113E-02         -6.33844E-01
      -7110     1.54442E+01    -1.23067E+01     0.00000E+00    -4.08226E-02         -2.00829E-02
      -7109     1.54398E+01    -1.23050E+01     0.00000E+00    -1.40939E-01          4.50206E-01
      -7108     1.54355E+01    -1.23033E+01     0.00000E+00     7.49071E-01         -7.59207E-01
      -7107     1.54312E+01    -1.23015E+01     0.00000E+00    -5.93154E-03          9.00346E-01
      -7106     1.54268E+01    -1.22998E+01     0.00000E+00     9.29369E-01         -4.11206E-01
      -7105     1.54225E+01    -1.22981E+01     0.00000E+00    -3.08608E-01          4.14261E-01
      -7104     1.54181E+01    -1.22963E+01     0.00000E+00    -4.21059E-01          7.79890E-02
      -7103     1.54138E+01    -1.22946E+01     0.00000E+00     4.15343E-01          3.54520E-02
      -7102     1.54094E+01    -1.22929E+01     0.00000E+00     2.69897E-01         -1.19337E-01
      -7101     1.54051E+01    -1.22912E+01     0.00000E+00    -2.52880E-01         -6.32999E-01
      -7100     1.54008E+01    -1.22894E+01     0.00000E+00    -2.57848E-01          4.52202E-01
      -7099     1.53964E+01    -1.22877E+01     0.00000E+00     6.50295E-01         -4.87001E-01
      -7098     1.53921E+01    -1.22860E+01     0.00000E+00    -3.78147E-01          2.23005E-02
      -7097     1.53878E+01    -1.22842E+01     0.00000E+00     1.72305E-01          1.85578E-01
      -7096     1.53834E+01    -1.22825E+01     0.00000E+00     3.65498E-01         -7.30271E-02
      -7095     1.53791E+01    -1.22808E+01     0.00000E+00     8.42041E-01         -5.96904E-01
      -7094     1.53748E+01    -1.22790E+01     0.00000E+00    -7.87960E-01          6.37257E-01
      -7093     1.53704E+01    -1.22773E+01     0.00000E+00     7.67405E-01         -8.81326E-01
      -7092     1.53661E+01    -1.22756E+01     0.00000E+00    -8.11100E-01          1.69456E-01
      -7091     1.53618E+01    -1.22738E+01     0.00000E+00    -9.22719E-02         -3.73845E-01
      -7090     1.53574E+01    -1.22721E+01     0.00000E+00     5.14921E-01          1.41779E-02
      -7089     1.53531E+01    -1.22704E+01     0.00000E+00    -4.00073E-02         -1.95188E-02
      -7088     1.53488E+01    -1.22687E+01     0.00000E+00    -4.17288E-01         -2.60739E-01
      -7087     1.53444E+01    -1.22669E+01     0.00000E+00    -7.90603E-01         -3.77984E-01
      -7086     1.53401E+01    -1.22652E+01     0.00000E+00     8.88260E-01          2.51185E-01
      -7085     1.53358E+01    -1.22635E+01     0.00000E+00     1.04491E-01         -1.09809E-01
      -7084     1.53314E+01    -1.22617E+01     0.00000E+00     7.69033E-02          3.53891E-01
      -7083     1.53271E+01    -1.22600E+01     0.00000E+00    -6.74631E-01         -2.23327E-02
      -7082     1.53228E+01    -1.22583E+01     0.00000E+00     2.50832E-01         -2.51050E-01
      -7081     1.53185E+01    -1.22565E+01     0.00000E+00     1.18188E-01          4.71421E-01
      -7080     1.53141E+01    -1.22548E+01     0.00000E+00    -3.30634E-02          3.09720E-01
      -7079     1.53098E+01    -1.22531E+01     0.00000E+00     1.68316E-01          2.25010E-02
      -7078     1.53055E+01    -1.22513E+01     0.00000E+00     2.81582E-01         -7.50935E-02
      -7077     1.53012E+01    -1.22496E+01     0.00000E+00     4.50452E-02         -3.88253E-01
      -7076     1.52968E+01    -1.22479E+01     0.00000E+00    -6.75629E-01         -1.56317E-01
      -7075     1.52925E+01    -1.22462E+01     0.00000E+00    -1.06682E-01          1.83391E-01
      -7074     1.52882E+01    -1.22444E+01     0.00000E+00     2.76005E-01          4.01113E-01
      -7073     1.52839E+01    -1.22427E+01     0.00000E+00     4.52426E-02          3.74452E-01
      -7072     1.52795E+01    -1.22410E+01     0.00000E+00    -2.53615E-01          5.85175E-02
      -7071     1.52752E+01    -1.22392E+01     0.00000E+00    -3.66745E-01         -1.25159E-01
      -7070     1.52709E+01    -1.22375E+01     0.00000E+00     1.93404E-01         -8.68442E-02
      -7069     1.52666E+01    -1.22358E+01     0.00000E+00     2.14395E-01         -1.35273E-01
      -7068     1.52623E+01    -1.22340E+01     0.00000E+00     2.25099E-01          2.05649E-01
      -7067     1.52579E+01    -1.22323E+01     0.00000E+00    -5.68279E-01          3.86492E-01
      -7066     1.52536E+01    -1.22306E+01     0.00000E+00     3.56935E-01          3.46780E-01
      -7065     1.52493E+01    -1.22288E+01     0.00000E+00    -3.00236E-01         -4.80479E-01
      -7064     1.52450E+01    -1.22271E+01     0.00000E+00    -5.50023E-01          8.22046E-01
      -7063     1.52407E+01    -1.22254E+01     0.00000E+00     6.52847E-02          3.28671E-01
      -7062     1.52364E+01    -1.22237E+01     0.00000E+00     2.91694E-01          4.47773E-01
      -7061     1.52320E+01    -1.22219E+01     0.00000E+00     5.61083E-01         -6.14999E-01
      -7060     1.52277E+01    -1.22202E+01     0.00000E+00    -1.37641E-02         -6.22669E-02
      -7059     1.52234E+01    -1.22185E+01     0.00000E+00    -2.33578E-01         -3.23739E-01
      -7058     1.52191E+01    -1.22167E+01     0.00000E+00    -2.83784E-01         -4.07332E-01
      -7057     1.52148E+01    -1.22150E+01     0.00000E+00    -4.56445E-01          4.44774E-01
      -7056     1.52105E+01    -1.22133E+01     0.00000E+00     7.25878E-01         -7.55942E-02
      -7055     1.52062E+01    -1.22115E+01     0.00000E+00     5.95622E-02         -3.14123E-01
      -7054     1.52019E+01    -1.22098E+01     0.00000E+00     3.04668E-01         -1.36976E-01
      -7053     1.51976E+01    -1.22081E+01     0.00000E+00     1.66959E-01          5.89734E-01
      -7052     1.51932E+01    -1.22063E+01     0.00000E+00    -4.02514E-01          5.61983E-03
      -7051     1.51889E+01    -1.22046E+01     0.00000E+00    -2.95187E-01         -3.55699E-01
      -7050     1.51846E+01    -1.22029E+01     0.00000E+00    -4.95094E-01         -2.05404E-01
      -7049     1.51803E+01    -1.22011E+01     0.00000E+00     2.36510E-02          1.66200E-01
      -7048     1.51760E+01    -1.21994E+01     0.00000E+00     1.19443E-02         -2.50922E-01
      -7047     1.51717E+01    -1.21977E+01     0.00000E+00     1.28877E+00         -1.25467E-01
      -7046     1.51674E+01    -1.21960E+01     0.00000E+00    -8.89744E-03         -2.64876E-01
      -7045     1.51631E+01    -1.21942E+01     0.00000E+00     1.86209E-01         -2.68775E-01
      -7044     1.51588E+01    -1.21925E+01     0.00000E+00     1.29170E-01         -6.47202E-01
      -7043     1.51545E+01    -1.21908E+01     0.00000E+00    -7.13734E-01          4.52479E-01
      -7042     1.51502E+01    -1.21890E+01     0.00000E+00    -2.62344E-01          1.15801E+00
      -7041     1.51459E+01    -1.21873E+01     0.00000E+00    -8.81778E-01          7.58990E-01
      -7040     1.51416E+01    -1.21856E+01     0.00000E+00    -1.40905E-01          3.28751E-01
      -7039     1.51373E+01    -1.21838E+01     0.00000E+00     3.88137E-01         -4.10093E-01
      -7038     1.51330E+01    -1.21821E+01     0.00000E+00     7.50389E-03          8.64826E-01
      -7037     1.51287E+01    -1.21804E+01     0.00000E+00     8.65349E-01         -6.61512E-01
      -7036     1.51244E+01    -1.21786E+01     0.00000E+00    -7.80850E-03         -3.55704E-01
      -7035     1.51201E+01    -1.21769E+01     0.00000E+00     1.53382E-01          6.03584E-01
      -7034     1.51158E+01    -1.21752E+01     0.00000E+00    -3.33973E-01          5.21343E-02
      -7033     1.51115E+01    -1.21735E+01     0.00000E+00    -6.67172E-01          7.75692E-01
      -7032     1.51072E+01    -1.21717E+01     0.00000E+00    -1.84371E-02          4.05269E-01
      -7031     1.51029E+01    -1.21700E+01     0.00000E+00     1.01869E-01         -1.50901E-01
      -7030     1.50986E+01    -1.21683E+01     0.00000E+00     5.56404E-01         -3.10024E-01
      -7029     1.50943E+01    -1.21665E+01     0.00000E+00     4.05640E-01          3.56673E-01
      -7028     1.50900E+01    -1.21648E+01     0.00000E+00     8.57369E-01          6.63776E-01
      -7027     1.50857E+01    -1.21631E+01     0.00000E+00    -2.90240E-01         -2.35943E-01
      -7026     1.50814E+01    -1.21613E+01     0.00000E+00    -2.14354E-01         -4.75695E-02
      -7025     1.50771E+01    -1.21596E+01     0.00000E+00    -3.73441E-01         -7.07757E-01
      -7024     1.50728E+01    -1.21579E+01     0.00000E+00    -1.64669E-01         -4.93442E-01
      -7023     1.50685E+01    -1.21561E+01     0.00000E+00    -2.81469E-01         -3.15489E-01
      -7022     1.50642E+01    -1.21544E+01     0.00000E+00    -4.90175E-02          1.56515E-01
      -7021     1.50600E+01    -1.21527E+01     0.00000E+00     1.71259E-01          4.00261E-01
      -7020     1.50557E+01    -1.21510E+01     0.00000E+00    -6.54464E-01          8.01290E-01
      -7019     1.50514E+01    -1.21492E+01     0.00000E+00    -5.40486E-01         -8.01853E-01
      -7018     1.50471E+01    -1.21475E+01     0.00000E+00     6.41418E-01          2.77542E-01
      -7017     1.50428E+01    -1.21458E+01     0.00000E+00     5.96424E-01          6.63262E-02
      -7016     1.50385E+01    -1.21440E+01     0.00000E+00    -3.55666E-01          7.43858E-02
      -7015     1.50342E+01    -1.21423E+01     0.00000E+00     1.10681E-01          2.48716E-01
      -7014     1.50299E+01    -1.21406E+01     0.00000E+00     3.48432E-01         -8.47718E-01
      -7013     1.50257E+01    -1.21388E+01     0.00000E+00     1.36725E-01         -3.61160E-01
      -7012     1.50214E+01    -1.21371E+01     0.00000E+00    -2.44792E-01         -2.65236E-01
      -7011     1.50171E+01    -1.21354E+01     0.00000E+00    -1.85112E-01          7.12086E-01
      -7010     1.50128E+01    -1.21336E+01     0.00000E+00    -1.72083E-01          7.30832E-01
      -7009     1.50085E+01    -1.21319E+01     0.00000E+00    -5.54998E-03         -4.24223E-01
      -7008     1.50042E+01    -1.21302E+01     0.00000E+00     1.12327E-01         -5.58235E-01
      -7007     1.50000E+01    -1.21285E+01     0.00000E+00     5.42622E-01         -2.78028E-01
      -7006     1.49957E+01    -1.21267E+01     0.00000E+00     7.95059E-01         -3.78721E-01
      -7005     1.49914E+01    -1.21250E+01     0.00000E+00     2.20826E-01         -5.66858E-01
      -7004     1.49871E+01    -1.21233E+01     0.00000E+00     1.73496E-01         -3.55266E-01
      -7003     1.49828E+01    -1.21215E+01     0.00000E+00     4.66248E-01          5.11133E-01
      -7002     1.49786E+01    -1.21198E+01     0.00000E+00     8.51535E-01         -5.35978E-01
      -7001     1.49743E+01    -1.21181E+01     0.00000E+00     6.28693E-02         -1.59672E-01
      -7000     1.49700E+01    -1.21163E+01     0.00000E+00    -5.78379E-01         -6.67992E-02
      -6999     1.49657E+01    -1.21146E+01     0.00000E+00     4.84169E-01          7.54655E-02
      -6998     1.49614E+01    -1.21129E+01     0.00000E+00     2.32300E-01          1.18619E+00
      -6997     1.49572E+01    -1.21111E+01     0.00000E+00     6.90293E-01         -4.43431E-01
      -6996     1.49529E+01    -1.21094E+01     0.00000E+00    -5.47350E-01         -3.70630E-02
      -6995     1.49486E+01    -1.21077E+01     0.00000E+00    -3.28255E-01         -2.69483E-01
      -6994     1.49444E+01    -1.21059E+01     0.00000E+00     4.36888E-01         -3.89606E-01
      -6993     1.49401E+01    -1.21042E+01     0.00000E+00     5.29860E-01          4.92099E-01
      -6992     1.49358E+01    -1.21025E+01     0.00000E+00     4.10057E-01         -4.95083E-01
      -6991     1.49315E+01    -1.21008E+01     0.00000E+00    -2.03146E-01         -4.55290E-01
      -6990     1.49273E+01    -1.20990E+01     0.00000E+00    -2.67921E-01         -2.56679E-01
      -6989     1.49230E+01    -1.20973E+01     0.00000E+00     3.27705E-01         -8.03039E-02
      -6988     1.49187E+01    -1.20956E+01     0.00000E+00     1.80357E-01         -7.88458E-02
      -6987     1.49145E+01    -1.20938E+01     0.00000E+00     2.85489E-01         -8.20922E-01
      -6986     1.49102E+01    -1.20921E+01     0.00000E+00    -1.46028E-02          2.80174E-01
      -6985     1.49059E+01    -1.20904E+01     0.00000E+00    -5.94862E-02         -1.20981E-01
      -6984     1.49016E+01    -1.20886E+01     0.00000E+00    -2.63358E-01          8.77677E-02
      -6983     1.48974E+01    -1.20869E+01     0.00000E+00     3.45633E-01         -9.20107E-01
      -6982     1.48931E+01    -1.20852E+01     0.00000E+00     8.62505E-01          2.22889E-01
      -6981     1.48888E+01    -1.20834E+01     0.00000E+00     4.95335E-01          1.84331E-01
      -6980     1.48846E+01    -1.20817E+01     0.00000E+00    -5.63966E-01         -3.19757E-01
      -6979     1.48803E+01    -1.20800E+01     0.00000E+00     6.88854E-01         -2.45184E-01
      -6978     1.48761E+01    -1.20783E+01     0.00000E+00     5.94445E-01          2.96631E-01
      -6977     1.48718E+01    -1.20765E+01     0.00000E+00     1.71815E-01          1.65294E-01
      -6976     1.48675E+01    -1.20748E+01     0.00000E+00    -6.31895E-01         -3.34472E-01
      -6975     1.48633E+01    -1.20731E+01     0.00000E+00     2.92768E-01          3.66325E-01
      -6974     1.48590E+01    -1.20713E+01     0.00000E+00     2.74118E-01         -1.71774E-01
      -6973     1.48547E+01    -1.20696E+01     0.00000E+00     5.77558E-01         -3.47717E-01
      -6972     1.48505E+01    -1.20679E+01     0.00000E+00    -4.39714E-01         -1.11280E-01
      -6971     1.48462E+01    -1.20661E+01     0.00000E+00    -5.60709E-01          2.58118E-01
      -6970     1.48420E+01    -1.20644E+01     0.00000E+00     5.37056E-01          1.14872E-01
      -6969     1.48377E+01    -1.20627E+01     0.00000E+00     1.76471E-01          2.61464E-01
      -6968     1.48334E+01    -1.20609E+01     0.00000E+00    -5.85957E-01          2.68809E-02
      -6967     1.48292E+01    -1.20592E+01     0.00000E+00    -1.86657E-01          1.99597E-01
      -6966     1.48249E+01    -1.20575E+01     0.00000E+00     3.26073E-01         -4.27579E-01
      -6965     1.48207E+01    -1.20558E+01     0.00000E+00    -4.37371E-01          6.34245E-01
      -6964     1.48164E+01    -1.20540E+01     0.00000E+00     6.54523E-01         -1.50734E-01
      -6963     1.48122E+01    -1.20523E+01     0.00000E+00     2.08650E-01          1.32356E-01
      -6962     1.48079E+01    -1.20506E+01     0.00000E+00     3.30340E-01          1.51783E-01
      -6961     1.48037E+01    -1.20488E+01     0.00000E+00     3.99331E-01          5.22263E-01
      -6960     1.47994E+01    -1.20471E+01     0.00000E+00    -2.58608E-01         -3.44805E-01
      -6959     1.47952E+01    -1.20454E+01     0.00000E+00    -1.43465E-01          1.00441E-01
      -6958     1.47909E+01    -1.20436E+01     0.00000E+00     8.18306E-01          4.27248E-01
      -6957     1.47867E+01    -1.20419E+01     0.00000E+00    -4.83698E-01          1.07628E-01
      -6956     1.47824E+01    -1.20402E+01     0.00000E+00    -1.09200E-01         -9.61573E-01
      -6955     1.47782E+01    -1.20384E+01     0.00000E+00     8.51710E-01          1.05092E-01
      -6954     1.47739E+01    -1.20367E+01     0.00000E+00    -6.89143E-01         -3.46856E-01
      -6953     1.47697E+01    -1.20350E+01     0.00000E+00     1.33047E-01          1.47578E-01
      -6952     1.47654E+01    -1.20333E+01     0.00000E+00     4.84385E-01         -6.17289E-02
      -6951     1.47612E+01    -1.20315E+01     0.00000E+00    -3.14627E-01         -3.25997E-01
      -6950     1.47569E+01    -1.20298E+01     0.00000E+00    -2.41033E-01         -5.75654E-02
      -6949     1.47527E+01    -1.20281E+01     0.00000E+00    -1.63762E-01         -2.01030E-01
      -6948     1.47484E+01    -1.20263E+01     0.00000E+00     1.43821E-01         -2.79369E-01
      -6947     1.47442E+01    -1.20246E+01     0.00000E+00     8.45050E-01          1.79187E-01
      -6946     1.47399E+01    -1.20229E+01     0.00000E+00     8.39883E-03          1.23958E-01
      -6945     1.47357E+01    -1.20211E+01     0.00000E+00     4.54276E-01         -3.50871E-01
      -6944     1.47314E+01    -1.20194E+01     0.00000E+00     5.43968E-01          1.50712E-01
      -6943     1.47272E+01    -1.20177E+01     0.00000E+00    -8.51645E-01         -3.48233E-01
      -6942     1.47230E+01    -1.20159E+01     0.00000E+00    -2.10623E-01          4.03640E-01
      -6941     1.47187E+01    -1.20142E+01     0.00000E+00     5.59945E-01         -5.31592E-01
      -6940     1.47145E+01    -1.20125E+01     0.00000E+00     6.58599E-01         -1.56766E+00
      -6939     1.47102E+01    -1.20107E+01     0.00000E+00     1.02504E-01         -3.81769E-01
      -6938     1.47060E+01    -1.20090E+01     0.00000E+00    -3.88117E-01         -7.32027E-01
      -6937     1.47018E+01    -1.20073E+01     0.00000E+00    -3.71971E-01          2.18228E-02
      -6936     1.46975E+01    -1.20056E+01     0.00000E+00     2.60149E-01          7.67872E-01
      -6935     1.46933E+01    -1.20038E+01     0.00000E+00    -6.47178E-01          1.24854E-01
      -6934     1.46890E+01    -1.20021E+01     0.00000E+00    -1.66979E-01         -1.08417E+00
      -6933     1.46848E+01    -1.20004E+01     0.00000E+00     5.12652E-01          2.25621E-03
      -6932     1.46806E+01    -1.19986E+01     0.00000E+00    -1.22849E-01          1.84054E-01
      -6931     1.46763E+01    -1.19969E+01     0.00000E+00     5.74978E-02         -7.62495E-01
      -6930     1.46721E+01    -1.19952E+01     0.00000E+00     1.52090E-01          3.69175E-01
      -6929     1.46679E+01    -1.19934E+01     0.00000E+00     2.12766E-02          9.97673E-03
      -6928     1.46636E+01    -1.19917E+01     0.00000E+00     8.94311E-01          2.86125E-01
      -6927     1.46594E+01    -1.19900E+01     0.00000E+00     4.99694E-01          3.79371E-01
      -6926     1.46552E+01    -1.19882E+01     0.00000E+00     4.98059E-03          6.73314E-02
      -6925     1.46509E+01    -1.19865E+01     0.00000E+00    -7.36924E-01         -9.90181E-02
      -6924     1.46467E+01    -1.19848E+01     0.00000E+00    -4.47690E-01          1.26065E+00
      -6923     1.46425E+01    -1.19831E+01     0.00000E+00    -1.11395E-01         -1.98223E-01
      -6922     1.46382E+01    -1.19813E+01     0.00000E+00     2.91694E-01         -2.97364E-01
      -6921     1.46340E+01    -1.19796E+01     0.00000E+00     3.84766E-01         -3.57753E-02
      -6920     1.46298E+01    -1.19779E+01     0.00000E+00     3.49593E-01         -3.56611E-01
      -6919     1.46256E+01    -1.19761E+01     0.00000E+00     1.53525E-01          1.76543E-02
      -6918     1.46213E+01    -1.19744E+01     0.00000E+00     4.53371E-01          1.29281E-01
      -6917     1.46171E+01    -1.19727E+01     0.00000E+00    -2.76301E-01          1.28759E-01
      -6916     1.46129E+01    -1.19709E+01     0.00000E+00     3.11767E-02          5.81161E-01
      -6915     1.46087E+01    -1.19692E+01     0.00000E+00     2.38429E-01          3.28992E-01
      -6914     1.46044E+01    -1.19675E+01     0.00000E+00     8.81102E-01         -7.21353E-01
      -6913     1.46002E+01    -1.19657E+01     0.00000E+00    -2.57179E-01         -2.05739E-01
      -6912     1.45960E+01    -1.19640E+01     0.00000E+00    -5.15714E-01          6.01319E-01
      -6911     1.45918E+01    -1.19623E+01     0.00000E+00     1.04487E-01         -5.84884E-01
      -6910     1.45875E+01    -1.19606E+01     0.00000E+00    -1.31137E-01          7.33912E-02
      -6909     1.45833E+01    -1.19588E+01     0.00000E+00     2.21086E-02         -5.22250E-01
      -6908     1.45791E+01    -1.19571E+01     0.00000E+00    -4.23661E-01         -8.78725E-01
      -6907     1.45749E+01    -1.19554E+01     0.00000E+00    -4.01430E-01          2.20373E-01
      -6906     1.45707E+01    -1.19536E+01     0.00000E+00     1.77810E-01         -3.58139E-01
      -6905     1.45664E+01    -1.19519E+01     0.00000E+00     3.57449E-01         -1.00349E-01
      -6904     1.45622E+01    -1.19502E+01     0.00000E+00     5.03117E-03         -7.53094E-04
      -6903     1.45580E+01    -1.19484E+01     0.00000E+00     4.04363E-01          4.35889E-01
      -6902     1.45538E+01    -1.19467E+01     0.00000E+00     4.07618E-01         -2.13325E-02
      -6901     1.45496E+01    -1.19450E+01     0.00000E+00    -6.08565E-01          1.00160E+00
      -6900     1.45453E+01    -1.19432E+01     0.00000E+00     3.34140E-01          3.78695E-02
      -6899     1.45411E+01    -1.19415E+01     0.00000E+00    -3.24393E-01         -4.09351E-01
      -6898     1.45369E+01    -1.19398E+01     0.00000E+00    -3.19685E-01         -2.22480E-01
      -6897     1.45327E+01    -1.19381E+01     0.00000E+00    -5.00866E-01         -4.94017E-01
      -6896     1.45285E+01    -1.19363E+01     0.00000E+00    -1.63865E-01          2.50590E-01
      -6895     1.45243E+01    -1.19346E+01     0.00000E+00    -8.99031E-02         -2.48056E-01
      -6894     1.45201E+01    -1.19329E+01     0.00000E+00     8.48595E-01         -2.46842E-01
      -6893     1.45158E+01    -1.19311E+01     0.00000E+00     4.51862E-01          1.13287E-01
      -6892     1.45116E+01    -1.19294E+01     0.00000E+00    -4.44314E-01          7.76385E-01
      -6891     1.45074E+01    -1.19277E+01     0.00000E+00     5.26034E-01          1.72188E-01
      -6890     1.45032E+01    -1.19259E+01     0.00000E+00    -6.21411E-01         -1.94543E-01
      -6889     1.44990E+01    -1.19242E+01     0.00000E+00     3.08922E-01          3.29825E-01
      -6888     1.44948E+01    -1.19225E+01     0.00000E+00    -2.57213E-01         -2.89486E-01
      -6887     1.44906E+01    -1.19207E+01     0.00000E+00     2.30300E-01          2.73959E-01
      -6886     1.44864E+01    -1.19190E+01     0.00000E+00     5.19036E-01         -5.47391E-01
      -6885     1.44822E+01    -1.19173E+01     0.00000E+00     2.35065E-01          4.50037E-01
      -6884     1.44780E+01    -1.19156E+01     0.00000E+00    -1.91366E-01          1.68827E-01
      -6883     1.44738E+01    -1.19138E+01     0.00000E+00     6.94065E-02          7.30222E-01
      -6882     1.44696E+01    -1.19121E+01     0.00000E+00     9.49277E-02          1.09711E-01
      -6881     1.44653E+01    -1.19104E+01     0.00000E+00     6.22541E-01         -3.01154E-01
      -6880     1.44611E+01    -1.19086E+01     0.00000E+00     7.71795E-02         -8.05081E-01
      -6879     1.44569E+01    -1.19069E+01     0.00000E+00    -2.48347E-03          4.45181E-01
      -6878     1.44527E+01    -1.19052E+01     0.00000E+00     2.80185E-01         -2.44671E-01
      -6877     1.44485E+01    -1.19034E+01     0.00000E+00     4.83952E-01          6.49787E-01
      -6876     1.44443E+01    -1.19017E+01     0.00000E+00     3.01890E-01         -1.80740E-01
      -6875     1.44401E+01    -1.19000E+01     0.00000E+00     4.54111E-01         -4.45073E-01
      -6874     1.44359E+01    -1.18982E+01     0.00000E+00     3.05220E-01         -2.24078E-01
      -6873     1.44317E+01    -1.18965E+01     0.00000E+00     5.13737E-01          6.20103E-01
      -6872     1.44275E+01    -1.18948E+01     0.00000E+00     9.71371E-02          8.09428E-01
      -6871     1.44233E+01    -1.18930E+01     0.00000E+00     3.65143E-01          4.70737E-01
      -6870     1.44191E+01    -1.18913E+01     0.00000E+00     2.80729E-01          2.12233E-01
      -6869     1.44149E+01    -1.18896E+01     0.00000E+00    -4.98027E-01          1.84698E-01
      -6868     1.44107E+01    -1.18879E+01     0.00000E+00     2.19134E-01         -4.09171E-01
      -6867     1.44065E+01    -1.18861E+01     0.00000E+00    -8.91181E-01         -5.01948E-01
      -6866     1.44024E+01    -1.18844E+01     0.00000E+00     1.58890E-01         -4.09216E-02
      -6865     1.43982E+01    -1.18827E+01     0.00000E+00     3.86445E-01         -3.51494E-01
      -6864     1.43940E+01    -1.18809E+01     0.00000E+00    -1.71125E-01          2.93068E-01
      -6863     1.43898E+01    -1.18792E+01     0.00000E+00     1.01876E-01         -2.09417E-02
      -6862     1.43856E+01    -1.18775E+01     0.00000E+00    -6.45840E-01         -1.31987E-01
      -6861     1.43814E+01    -1.18757E+01     0.00000E+00     2.66371E-01          6.56662E-01
      -6860     1.43772E+01    -1.18740E+01     0.00000E+00    -3.17926E-01         -2.17741E-01
      -6859     1.43730E+01    -1.18723E+01     0.00000E+00     1.39017E-01         -8.53407E-02
      -6858     1.43688E+01    -1.18705E+01     0.00000E+00    -2.26486E-01         -3.08633E-01
      -6857     1.43646E+01    -1.18688E+01     0.00000E+00    -2.36133E-01         -3.50290E-01
      -6856     1.43604E+01    -1.18671E+01     0.00000E+00    -1.56543E-01         -2.99657E-01
      -6855     1.43562E+01    -1.18654E+01     0.00000E+00     1.03302E-01         -2.09784E-03
      -6854     1.43521E+01    -1.18636E+01     0.00000E+00     6.09300E-01          1.09682E-01
      -6853     1.43479E+01    -1.18619E+01     0.00000E+00    -2.01836E-01         -1.10803E+00
      -6852     1.43437E+01    -1.18602E+01     0.00000E+00    -3.63046E-01          1.07643E+00
      -6851     1.43395E+01    -1.18584E+01     0.00000E+00     7.64139E-01         -2.28913E-01
      -6850     1.43353E+01    -1.18567E+01     0.00000E+00     7.84916E-03         -3.41281E-01
      -6849     1.43311E+01    -1.18550E+01     0.00000E+00     1.37620E-01         -3.28593E-01
      -6848     1.43269E+01    -1.18532E+01     0.00000E+00     7.63138E-01          8.24659E-01
      -6847     1.43228E+01    -1.18515E+01     0.00000E+00     4.54648E-01         -1.72809E-01
      -6846     1.43186E+01    -1.18498E+01     0.00000E+00     6.66284E-02         -4.20750E-01
      -6845     1.43144E+01    -1.18480E+01     0.00000E+00    -1.33867E-01         -1.08672E-01
      -6844     1.43102E+01    -1.18463E+01     0.00000E+00    -2.79521E-01         -4.26328E-01
      -6843     1.43060E+01    -1.18446E+01     0.00000E+00    -1.00879E-01          6.32488E-02
      -6842     1.43018E+01    -1.18429E+01     0.00000E+00    -4.41972E-01          6.18518E-01
      -6841     1.42977E+01    -1.18411E+01     0.00000E+00     2.98436E-01          3.94157E-01
      -6840     1.42935E+01    -1.18394E+01     0.00000E+00    -1.82543E-01          2.77356E-01
      -6839     1.42893E+01    -1.18377E+01     0.00000E+00    -6.84259E-01         -4.73117E-01
      -6838     1.42851E+01    -1.18359E+01     0.00000E+00     3.52928E-01         -9.15657E-01
      -6837     1.42809E+01    -1.18342E+01     0.00000E+00     3.35255E-01          4.13166E-01
      -6836     1.42768E+01    -1.18325E+01     0.00000E+00     4.01085E-01         -4.07602E-02
      -6835     1.42726E+01    -1.18307E+01     0.00000E+00     5.09517E-01         -1.03457E+00
      -6834     1.42684E+01    -1.18290E+01     0.00000E+00     3.46891E-02          6.51372E-02
      -6833     1.42642E+01    -1.18273E+01     0.00000E+00    -8.11356E-02          2.19555E-01
      -6832     1.42601E+01    -1.18255E+01     0.00000E+00     2.94404E-01          1.62349E-01
      -6831     1.42559E+01    -1.18238E+01     0.00000E+00    -6.02784E-01          3.94024E-01
      -6830     1.42517E+01    -1.18221E+01     0.00000E+00    -1.00282E+00          1.72859E-01
      -6829     1.42475E+01    -1.18204E+01     0.00000E+00    -1.37270E-03          4.00216E-01
      -6828     1.42434E+01    -1.18186E+01     0.00000E+00    -3.43100E-01          6.89925E-01
      -6827     1.42392E+01    -1.18169E+01     0.00000E+00     6.01555E-01          7.36657E-01
      -6826     1.42350E+01    -1.18152E+01     0.00000E+00     2.41661E-01          4.87011E-01
      -6825     1.42309E+01    -1.18134E+01     0.00000E+00    -7.69878E-03          2.68352E-01
      -6824     1.42267E+01    -1.18117E+01     0.00000E+00    -4.88612E-02          2.23154E-01
      -6823     1.42225E+01    -1.18100E+01     0.00000E+00    -3.65355E-01         -9.64412E-03
      -6822     1.42184E+01    -1.18082E+01     0.00000E+00    -1.67199E-01         -1.12533E+00
      -6821     1.42142E+01    -1.18065E+01     0.00000E+00    -1.17825E-01          1.02658E+00
      -6820     1.42100E+01    -1.18048E+01     0.00000E+00    -4.21279E-01          5.49017E-01
      -6819     1.42058E+01    -1.18030E+01     0.00000E+00     1.30252E-01          6.67337E-01
      -6818     1.42017E+01    -1.18013E+01     0.00000E+00    -1.53015E-01         -8.35751E-02
      -6817     1.41975E+01    -1.17996E+01     0.00000E+00    -4.10045E-01         -1.51191E+00
      -6816     1.41934E+01    -1.17978E+01     0.00000E+00     2.11352E-01          3.32697E-01
      -6815     1.41892E+01    -1.17961E+01     0.00000E+00    -2.36551E-01         -1.83464E-01
      -6814     1.41850E+01    -1.17944E+01     0.00000E+00    -2.76586E-01          3.55693E-01
      -6813     1.41809E+01    -1.17927E+01     0.00000E+00     7.88400E-02          3.64736E-01
      -6812     1.41767E+01    -1.17909E+01     0.00000E+00     7.29088E-01         -1.22619E-01
      -6811     1.41725E+01    -1.17892E+01     0.00000E+00    -1.98304E-01         -2.73988E-01
      -6810     1.41684E+01    -1.17875E+01     0.00000E+00     6.94901E-01         -4.93141E-01
      -6809     1.41642E+01    -1.17857E+01     0.00000E+00    -9.33139E-02         -1.63050E-01
      -6808     1.41601E+01    -1.17840E+01     0.00000E+00    -5.73427E-02         -4.91716E-01
      -6807     1.41559E+01    -1.17823E+01     0.00000E+00     1.97073E-01          9.74308E-01
      -6806     1.41517E+01    -1.17805E+01     0.00000E+00    -5.42973E-01         -3.15596E-01
      -6805     1.41476E+01    -1.17788E+01     0.00000E+00     6.56016E-01          3.50146E-01
      -6804     1.41434E+01    -1.17771E+01     0.00000E+00     4.38041E-01         -9.05903E-01
      -6803     1.41393E+01    -1.17753E+01     0.00000E+00    -6.93950E-01         -1.34603E-01
      -6802     1.41351E+01    -1.17736E+01     0.00000E+00     7.30689E-01          3.42706E-01
      -6801     1.41309E+01    -1.17719E+01     0.00000E+00    -1.24707E+00         -6.70200E-01
      -6800     1.41268E+01    -1.17702E+01     0.00000E+00    -4.90383E-01         -1.66778E-01
      -6799     1.41226E+01    -1.17684E+01     0.00000E+00     2.24857E-01          4.39125E-01
      -6798     1.41185E+01    -1.17667E+01     0.00000E+00     4.47287E-01          8.25465E-01
      -6797     1.41143E+01    -1.17650E+01     0.00000E+00     5.27769E-01         -3.37272E-01
      -6796     1.41102E+01    -1.17632E+01     0.00000E+00    -4.14825E-01          3.07245E-01
      -6795     1.41060E+01    -1.17615E+01     0.00000E+00    -3.96220E-01          8.34651E-02
      -6794     1.41019E+01    -1.17598E+01     0.00000E+00     5.84464E-01         -7.19560E-01
      -6793     1.40977E+01    -1.17580E+01     0.00000E+00     9.63060E-02         -5.43004E-01
      -6792     1.40936E+01    -1.17563E+01     0.00000E+00     3.37131E-01          4.81902E-01
      -6791     1.40894E+01    -1.17546E+01     0.00000E+00    -3.25107E-01          5.56075E-01
      -6790     1.40853E+01    -1.17528E+01     0.00000E+00    -4.89397E-01         -1.31383E-01
      -6789     1.40811E+01    -1.17511E+01     0.00000E+00     3.95993E-02          2.79794E-01
      -6788     1.40770E+01    -1.17494E+01     0.00000E+00     7.26008E-01         -2.99451E-01
      -6787     1.40728E+01    -1.17477E+01     0.00000E+00    -5.67021E-01          7.90507E-01
      -6786     1.40687E+01    -1.17459E+01     0.00000E+00    -2.97556E-01          7.02989E-01
      -6785     1.40645E+01    -1.17442E+01     0.00000E+00     3.85564E-01         -1.54014E-01
      -6784     1.40604E+01    -1.17425E+01     0.00000E+00     4.87432E-01         -7.31138E-01
      -6783     1.40562E+01    -1.17407E+01     0.00000E+00    -9.26570E-01          1.62296E-01
      -6782     1.40521E+01    -1.17390E+01     0.00000E+00     1.91977E-01         -4.71491E-01
      -6781     1.40480E+01    -1.17373E+01     0.00000E+00     3.29737E-01          2.36002E-02
      -6780     1.40438E+01    -1.17355E+01     0.00000E+00    -1.06111E+00          1.61065E-01
      -6779     1.40397E+01    -1.17338E+01     0.00000E+00     5.86824E-03         -3.14739E-01
      -6778     1.40355E+01    -1.17321E+01     0.00000E+00    -1.94126E-01          9.06291E-02
      -6777     1.40314E+01    -1.17303E+01     0.00000E+00     8.69698E-02          9.74541E-01
      -6776     1.40273E+01    -1.17286E+01     0.00000E+00     1.98965E-01          6.89922E-03
      -6775     1.40231E+01    -1.17269E+01     0.00000E+00     4.43991E-01          2.13093E-01
      -6774     1.40190E+01    -1.17252E+01     0.00000E+00     1.33647E+00          2.04250E-01
      -6773     1.40148E+01    -1.17234E+01     0.00000E+00     5.86563E-02         -3.85573E-01
      -6772     1.40107E+01    -1.17217E+01     0.00000E+00    -2.99654E-01          4.75154E-01
      -6771     1.40066E+01    -1.17200E+01     0.00000E+00     2.99413E-01         -3.50185E-01
      -6770     1.40024E+01    -1.17182E+01     0.00000E+00     5.56401E-01         -3.25330E-01
      -6769     1.39983E+01    -1.17165E+01     0.00000E+00    -1.33858E-01          1.93897E-01
      -6768     1.39942E+01    -1.17148E+01     0.00000E+00     5.80290E-01          1.72876E-01
      -6767     1.39900E+01    -1.17130E+01     0.00000E+00     5.42492E-01         -4.78033E-01
      -6766     1.39859E+01    -1.17113E+01     0.00000E+00     9.57913E-01          4.17562E-02
      -6765     1.39817E+01    -1.17096E+01     0.00000E+00     4.95193E-01          1.28520E-01
      -6764     1.39776E+01    -1.17078E+01     0.00000E+00     4.80020E-01         -7.78282E-01
      -6763     1.39735E+01    -1.17061E+01     0.00000E+00    -8.09031E-01          2.97959E-01
      -6762     1.39693E+01    -1.17044E+01     0.00000E+00     1.74339E-01         -3.34424E-01
      -6761     1.39652E+01    -1.17026E+01     0.00000E+00     2.56733E-02         -8.89522E-01
      -6760     1.39611E+01    -1.17009E+01     0.00000E+00    -5.28453E-01         -1.36231E+00
      -6759     1.39570E+01    -1.16992E+01     0.00000E+00    -6.14028E-01         -3.81852E-01
      -6758     1.39528E+01    -1.16975E+01     0.00000E+00     1.93255E-01         -1.46049E-02
      -6757     1.39487E+01    -1.16957E+01     0.00000E+00    -5.38865E-01          4.99244E-01
      -6756     1.39446E+01    -1.16940E+01     0.00000E+00    -5.87527E-01         -2.76649E-02
      -6755     1.39404E+01    -1.16923E+01     0.00000E+00     7.98165E-02          3.76813E-01
      -6754     1.39363E+01    -1.16905E+01     0.00000E+00    -3.56635E-01         -1.45030E-01
      -6753     1.39322E+01    -1.16888E+01     0.00000E+00    -5.38184E-01         -4.17617E-01
      -6752     1.39281E+01    -1.16871E+01     0.00000E+00     2.39043E-01         -4.51611E-01
      -6751     1.39239E+01    -1.16853E+01     0.00000E+00     3.03996E-02         -1.02341E-01
      -6750     1.39198E+01    -1.16836E+01     0.00000E+00     1.27578E-01          4.49627E-01
      -6749     1.39157E+01    -1.16819E+01     0.00000E+00     5.70289E-01         -3.94906E-01
      -6748     1.39116E+01    -1.16801E+01     0.00000E+00     8.39080E-02          5.88303E-01
      -6747     1.39074E+01    -1.16784E+01     0.00000E+00    -4.07968E-02          4.85983E-01
      -6746     1.39033E+01    -1.16767E+01     0.00000E+00    -7.40258E-01         -9.08229E-01
      -6745     1.38992E+01    -1.16750E+01     0.00000E+00     1.87230E-01          1.93443E-01
      -6744     1.38951E+01    -1.16732E+01     0.00000E+00    -2.43740E-01         -2.28671E-01
      -6743     1.38910E+01    -1.16715E+01     0.00000E+00     6.00245E-01         -1.63540E-01
      -6742     1.38868E+01    -1.16698E+01     0.00000E+00     5.38693E-01         -3.89695E-01
      -6741     1.38827E+01    -1.16680E+01     0.00000E+00     8.90688E-02         -9.59665E-02
      -6740     1.38786E+01    -1.16663E+01     0.00000E+00     3.29064E-01         -1.70175E-01
      -6739     1.38745E+01    -1.16646E+01     0.00000E+00    -1.98182E-01          2.72097E-01
      -6738     1.38704E+01    -1.16628E+01     0.00000E+00     1.05842E+00          9.86559E-02
      -6737     1.38662E+01    -1.16611E+01     0.00000E+00    -5.18663E-01         -7.34603E-01
      -6736     1.38621E+01    -1.16594E+01     0.00000E+00     6.21512E-01          4.76155E-01
      -6735     1.38580E+01    -1.16576E+01     0.00000E+00     4.33585E-01         -3.31584E-01
      -6734     1.38539E+01    -1.16559E+01     0.00000E+00    -4.21940E-01         -5.15824E-01
      -6733     1.38498E+01    -1.16542E+01     0.00000E+00    -3.43454E-01          2.29108E-01
      -6732     1.38457E+01    -1.16525E+01     0.00000E+00    -1.08659E+00          6.56912E-02
      -6731     1.38416E+01    -1.16507E+01     0.00000E+00    -4.54269E-01         -3.21422E-01
      -6730     1.38374E+01    -1.16490E+01     0.00000E+00     1.87006E-01         -9.73952E-01
      -6729     1.38333E+01    -1.16473E+01     0.00000E+00    -3.08848E-01          2.23197E-01
      -6728     1.38292E+01    -1.16455E+01     0.00000E+00     7.40390E-01          2.33575E-01
      -6727     1.38251E+01    -1.16438E+01     0.00000E+00    -4.54023E-01         -5.94402E-01
      -6726     1.38210E+01    -1.16421E+01     0.00000E+00    -1.92596E-01          1.15641E-01
      -6725     1.38169E+01    -1.16403E+01     0.00000E+00    -1.01816E+00          3.77604E-01
      -6724     1.38128E+01    -1.16386E+01     0.00000E+00     5.56626E-01          1.22363E-01
      -6723     1.38087E+01    -1.16369E+01     0.00000E+00     6.13934E-02          5.66763E-01
      -6722     1.38046E+01    -1.16351E+01     0.00000E+00    -2.75607E-01         -3.76274E-01
      -6721     1.38005E+01    -1.16334E+01     0.00000E+00    -5.66299E-01         -5.85977E-02
      -6720     1.37964E+01    -1.16317E+01     0.00000E+00     1.10068E-01         -4.24690E-01
      -6719     1.37922E+01    -1.16300E+01     0.00000E+00    -2.08539E-02         -3.05746E-01
      -6718     1.37881E+01    -1.16282E+01     0.00000E+00    -5.45729E-01         -1.69608E-01
      -6717     1.37840E+01    -1.16265E+01     0.00000E+00    -5.09801E-01         -1.03441E-01
      -6716     1.37799E+01    -1.16248E+01     0.00000E+00    -7.02748E-01          8.45878E-02
      -6715     1.37758E+01    -1.16230E+01     0.00000E+00    -4.89610E-02          5.36143E-01
      -6714     1.37717E+01    -1.16213E+01     0.00000E+00    -3.88049E-01         -3.76697E-01
      -6713     1.37676E+01    -1.16196E+01     0.00000E+00    -2.09984E-01          2.32853E-01
      -6712     1.37635E+01    -1.16178E+01     0.00000E+00    -8.03452E-01         -6.59520E-02
      -6711     1.37594E+01    -1.16161E+01     0.00000E+00    -4.78076E-02          7.95350E-02
      -6710     1.37553E+01    -1.16144E+01     0.00000E+00    -5.61242E-01         -8.64428E-02
      -6709     1.37512E+01    -1.16126E+01     0.00000E+00    -5.34109E-01         -9.39863E-02
      -6708     1.37471E+01    -1.16109E+01     0.00000E+00     5.74703E-01          1.72773E-01
      -6707     1.37430E+01    -1.16092E+01     0.00000E+00     3.73107E-01          5.91266E-02
      -6706     1.37389E+01    -1.16074E+01     0.00000E+00    -3.66545E-01          7.83073E-01
      -6705     1.37348E+01    -1.16057E+01     0.00000E+00    -1.54287E-01         -2.70301E-01
      -6704     1.37307E+01    -1.16040E+01     0.00000E+00    -8.15097E-02         -1.96825E-01
      -6703     1.37266E+01    -1.16023E+01     0.00000E+00    -1.45822E-02          4.57386E-01
      -6702     1.37225E+01    -1.16005E+01     0.00000E+00     4.52595E-01          3.09021E-01
      -6701     1.37185E+01    -1.15988E+01     0.00000E+00     4.04740E-02          5.51819E-01
      -6700     1.37144E+01    -1.15971E+01     0.00000E+00     4.44658E-01          2.39958E-01
      -6699     1.37103E+01    -1.15953E+01     0.00000E+00    -4.29663E-01         -3.46600E-01
      -6698     1.37062E+01    -1.15936E+01     0.00000E+00     1.65643E-01          4.58514E-02
      -6697     1.37021E+01    -1.15919E+01     0.00000E+00    -2.11663E-01          8.47468E-01
      -6696     1.36980E+01    -1.15901E+01     0.00000E+00    -8.03214E-01          3.19796E-01
      -6695     1.36939E+01    -1.15884E+01     0.00000E+00    -1.38854E-01         -4.45330E-01
      -6694     1.36898E+01    -1.15867E+01     0.00000E+00    -3.30242E-01          6.79068E-01
      -6693     1.36857E+01    -1.15849E+01     0.00000E+00    -1.39426E-01          9.32267E-01
      -6692     1.36816E+01    -1.15832E+01     0.00000E+00    -1.05244E+00          1.25754E-02
      -6691     1.36775E+01    -1.15815E+01     0.00000E+00     5.41388E-01         -4.86365E-01
      -6690     1.36734E+01    -1.15798E+01     0.00000E+00     3.71409E-01         -2.83306E-01
      -6689     1.36694E+01    -1.15780E+01     0.00000E+00    -2.12341E-01          5.23699E-01
      -6688     1.36653E+01    -1.15763E+01     0.00000E+00     3.44894E-01         -1.27493E+00
      -6687     1.36612E+01    -1.15746E+01     0.00000E+00     1.92502E-01         -5.53676E-01
      -6686     1.36571E+01    -1.15728E+01     0.00000E+00     1.77346E-01         -1.93499E-01
      -6685     1.36530E+01    -1.15711E+01     0.00000E+00     1.10143E-01          5.55733E-01
      -6684     1.36489E+01    -1.15694E+01     0.00000E+00    -4.27953E-01          6.09663E-01
      -6683     1.36448E+01    -1.15676E+01     0.00000E+00    -5.25818E-01          3.05895E-01
      -6682     1.36408E+01    -1.15659E+01     0.00000E+00     4.09723E-01          8.13106E-01
      -6681     1.36367E+01    -1.15642E+01     0.00000E+00     1.49610E-01          5.88616E-01
      -6680     1.36326E+01    -1.15624E+01     0.00000E+00    -3.17998E-01          1.41271E+00
      -6679     1.36285E+01    -1.15607E+01     0.00000E+00    -5.27010E-02          4.92497E-01
      -6678     1.36244E+01    -1.15590E+01     0.00000E+00     3.07862E-01          8.54063E-02
      -6677     1.36204E+01    -1.15573E+01     0.00000E+00    -7.39673E-01         -2.05209E-02
      -6676     1.36163E+01    -1.15555E+01     0.00000E+00    -1.20425E-01         -1.94097E-01
      -6675     1.36122E+01    -1.15538E+01     0.00000E+00    -2.94395E-01         -2.03521E-01
      -6674     1.36081E+01    -1.15521E+01     0.00000E+00    -4.92268E-01          5.12686E-01
      -6673     1.36040E+01    -1.15503E+01     0.00000E+00     3.90609E-01         -3.45765E-02
      -6672     1.36000E+01    -1.15486E+01     0.00000E+00    -5.30369E-01         -2.77046E-01
      -6671     1.35959E+01    -1.15469E+01     0.00000E+00     3.16779E-01          4.03655E-01
      -6670     1.35918E+01    -1.15451E+01     0.00000E+00     8.56612E-01         -8.25871E-02
      -6669     1.35877E+01    -1.15434E+01     0.00000E+00     9.79051E-02          5.23981E-01
      -6668     1.35837E+01    -1.15417E+01     0.00000E+00     9.99922E-01         -4.27925E-01
      -6667     1.35796E+01    -1.15399E+01     0.00000E+00    -5.29707E-02         -7.89138E-02
      -6666     1.35755E+01    -1.15382E+01     0.00000E+00     3.90985E-01         -4.96494E-01
      -6665     1.35714E+01    -1.15365E+01     0.00000E+00    -1.15349E-01          1.77120E-01
      -6664     1.35674E+01    -1.15348E+01     0.00000E+00     1.34156E-01         -2.62774E-01
      -6663     1.35633E+01    -1.15330E+01     0.00000E+00     2.25510E-02         -1.67819E-01
      -6662     1.35592E+01    -1.15313E+01     0.00000E+00     1.59546E-01         -6.99995E-01
      -6661     1.35552E+01    -1.15296E+01     0.00000E+00    -2.87646E-01         -5.68100E-02
      -6660     1.35511E+01    -1.15278E+01     0.00000E+00     5.79921E-01         -8.38282E-01
      -6659     1.35470E+01    -1.15261E+01     0.00000E+00    -1.12100E+00          3.02913E-01
      -6658     1.35430E+01    -1.15244E+01     0.00000E+00     1.52994E-01         -3.46913E-01
      -6657     1.35389E+01    -1.15226E+01     0.00000E+00     6.25265E-01         -3.77499E-01
      -6656     1.35348E+01    -1.15209E+01     0.00000E+00     3.20233E-01          4.11360E-01
      -6655     1.35308E+01    -1.15192E+01     0.00000E+00    -3.01602E-01          4.73581E-01
      -6654     1.35267E+01    -1.15174E+01     0.00000E+00     7.21861E-01          3.12279E-01
      -6653     1.35226E+01    -1.15157E+01     0.00000E+00     2.99618E-01          7.92928E-01
      -6652     1.35186E+01    -1.15140E+01     0.00000E+00     5.23723E-01          1.65585E-01
      -6651     1.35145E+01    -1.15122E+01     0.00000E+00    -2.81041E-01         -2.23305E-01
      -6650     1.35104E+01    -1.15105E+01     0.00000E+00    -6.35273E-01         -4.14220E-01
      -6649     1.35064E+01    -1.15088E+01     0.00000E+00     7.22030E-01          1.51191E-01
      -6648     1.35023E+01    -1.15071E+01     0.00000E+00    -9.18912E-01         -7.14163E-01
      -6647     1.34982E+01    -1.15053E+01     0.00000E+00    -5.97850E-02         -1.48783E-01
      -6646     1.34942E+01    -1.15036E+01     0.00000E+00     6.62533E-01         -6.95940E-01
      -6645     1.34901E+01    -1.15019E+01     0.00000E+00     3.23128E-01         -6.48919E-01
      -6644     1.34861E+01    -1.15001E+01     0.00000E+00     2.72078E-01         -3.66239E-01
      -6643     1.34820E+01    -1.14984E+01     0.00000E+00    -2.11276E-01          5.25727E-01
      -6642     1.34779E+01    -1.14967E+01     0.00000E+00    -4.22970E-01         -3.58407E-02
      -6641     1.34739E+01    -1.14949E+01     0.00000E+00     3.15888E-01         -5.47340E-02
      -6640     1.34698E+01    -1.14932E+01     0.00000E+00    -5.70260E-02         -4.47955E-01
      -6639     1.34658E+01    -1.14915E+01     0.00000E+00    -1.69229E-03          2.07709E-01
      -6638     1.34617E+01    -1.14897E+01     0.00000E+00     3.92153E-01         -5.49660E-03
      -6637     1.34577E+01    -1.14880E+01     0.00000E+00    -1.80468E-01          7.30177E-02
      -6636     1.34536E+01    -1.14863E+01     0.00000E+00     7.54474E-01          7.75145E-01
      -6635     1.34495E+01    -1.14846E+01     0.00000E+00     6.34093E-01         -4.77183E-01
      -6634     1.34455E+01    -1.14828E+01     0.00000E+00     2.27390E-01         -4.54859E-01
      -6633     1.34414E+01    -1.14811E+01     0.00000E+00     9.25054E-02          2.11120E-01
      -6632     1.34374E+01    -1.14794E+01     0.00000E+00    -1.28817E+00          1.01764E-01
      -6631     1.34333E+01    -1.14776E+01     0.00000E+00     5.81755E-01         -5.66984E-01
      -6630     1.34293E+01    -1.14759E+01     0.00000E+00     5.77266E-02         -2.42837E-01
      -6629     1.34252E+01    -1.14742E+01     0.00000E+00    -5.84189E-01         -1.95267E-01
      -6628     1.34212E+01    -1.14724E+01     0.00000E+00     8.86033E-01         -1.18629E-01
      -6627     1.34171E+01    -1.14707E+01     0.00000E+00     5.54914E-01          4.65423E-02
      -6626     1.34131E+01    -1.14690E+01     0.00000E+00     6.24486E-01         -2.52937E-01
      -6625     1.34090E+01    -1.14672E+01     0.00000E+00    -2.46046E-01         -5.14190E-01
      -6624     1.34050E+01    -1.14655E+01     0.00000E+00    -4.66178E-01         -2.07328E-01
      -6623     1.34009E+01    -1.14638E+01     0.00000E+00    -6.80576E-01          2.47930E-01
      -6622     1.33969E+01    -1.14621E+01     0.00000E+00     3.51529E-01          2.57481E-01
      -6621     1.33928E+01    -1.14603E+01     0.00000E+00     2.23002E-01          8.62666E-02
      -6620     1.33888E+01    -1.14586E+01     0.00000E+00     6.52905E-01          3.02304E-01
      -6619     1.33848E+01    -1.14569E+01     0.00000E+00    -8.63375E-01          4.36816E-01
      -6618     1.33807E+01    -1.14551E+01     0.00000E+00    -1.88145E-01         -1.10002E-01
      -6617     1.33767E+01    -1.14534E+01     0.00000E+00     4.44509E-01          2.34221E-01
      -6616     1.33726E+01    -1.14517E+01     0.00000E+00    -5.70359E-02          1.15985E+00
      -6615     1.33686E+01    -1.14499E+01     0.00000E+00     6.35987E-01          3.67234E-01
      -6614     1.33645E+01    -1.14482E+01     0.00000E+00    -1.06991E+00          9.57446E-01
      -6613     1.33605E+01    -1.14465E+01     0.00000E+00     5.83308E-01         -1.28700E-01
      -6612     1.33565E+01    -1.14447E+01     0.00000E+00    -2.66762E-01         -5.46814E-01
      -6611     1.33524E+01    -1.14430E+01     0.00000E+00     2.20270E-01         -1.20593E-01
      -6610     1.33484E+01    -1.14413E+01     0.00000E+00     3.77196E-01         -9.82832E-01
      -6609     1.33443E+01    -1.14396E+01     0.00000E+00    -8.37701E-01         -4.81142E-01
      -6608     1.33403E+01    -1.14378E+01     0.00000E+00     3.42755E-01          2.82206E-01
      -6607     1.33363E+01    -1.14361E+01     0.00000E+00     1.35072E-01         -9.09639E-02
      -6606     1.33322E+01    -1.14344E+01     0.00000E+00    -2.39066E-02          4.96887E-01
      -6605     1.33282E+01    -1.14326E+01     0.00000E+00    -2.78546E-01          4.95873E-01
      -6604     1.33242E+01    -1.14309E+01     0.00000E+00     3.16598E-01         -7.17234E-01
      -6603     1.33201E+01    -1.14292E+01     0.00000E+00     1.03060E-01         -4.57558E-02
      -6602     1.33161E+01    -1.14274E+01     0.00000E+00    -5.77105E-01          2.09732E-01
      -6601     1.33121E+01    -1.14257E+01     0.00000E+00     3.45212E-01         -2.14211E-01
      -6600     1.33080E+01    -1.14240E+01     0.00000E+00    -2.63275E-02          2.03537E-01
      -6599     1.33040E+01    -1.14222E+01     0.00000E+00     1.06542E+00         -1.26392E+00
      -6598     1.33000E+01    -1.14205E+01     0.00000E+00     4.98482E-01          2.01166E-01
      -6597     1.32959E+01    -1.14188E+01     0.00000E+00     3.27871E-01         -6.87384E-01
      -6596     1.32919E+01    -1.14170E+01     0.00000E+00     2.59013E-01         -3.13988E-01
      -6595     1.32879E+01    -1.14153E+01     0.00000E+00     4.78412E-01          6.84207E-02
      -6594     1.32838E+01    -1.14136E+01     0.00000E+00    -2.40342E-01          4.08216E-01
      -6593     1.32798E+01    -1.14119E+01     0.00000E+00     6.14134E-01         -3.28470E-01
      -6592     1.32758E+01    -1.14101E+01     0.00000E+00    -9.39903E-02         -4.47887E-01
      -6591     1.32718E+01    -1.14084E+01     0.00000E+00    -3.22428E-01         -5.21055E-03
      -6590     1.32677E+01    -1.14067E+01     0.00000E+00    -6.24113E-01          4.99159E-01
      -6589     1.32637E+01    -1.14049E+01     0.00000E+00     8.63419E-01         -3.13168E-01
      -6588     1.32597E+01    -1.14032E+01     0.00000E+00    -2.84417E-01          3.05609E-01
      -6587     1.32557E+01    -1.14015E+01     0.00000E+00    -7.26198E-02          9.46166E-01
      -6586     1.32516E+01    -1.13997E+01     0.00000E+00    -2.41619E-01         -1.34252E-02
      -6585     1.32476E+01    -1.13980E+01     0.00000E+00     7.24320E-01          5.05322E-01
      -6584     1.32436E+01    -1.13963E+01     0.00000E+00    -3.75485E-01          3.75778E-01
      -6583     1.32396E+01    -1.13945E+01     0.00000E+00     3.74332E-01         -4.02999E-01
      -6582     1.32355E+01    -1.13928E+01     0.00000E+00    -3.31342E-01          7.03241E-01
      -6581     1.32315E+01    -1.13911E+01     0.00000E+00     4.92235E-01          2.52606E-01
      -6580     1.32275E+01    -1.13894E+01     0.00000E+00    -3.89214E-01          6.40454E-02
      -6579     1.32235E+01    -1.13876E+01     0.00000E+00    -1.42290E-01          1.37654E-01
      -6578     1.32195E+01    -1.13859E+01     0.00000E+00     7.75805E-01         -5.64884E-01
      -6577     1.32154E+01    -1.13842E+01     0.00000E+00    -3.28749E-01          4.66341E-01
      -6576     1.32114E+01    -1.13824E+01     0.00000E+00    -6.13032E-02         -4.11810E-01
      -6575     1.32074E+01    -1.13807E+01     0.00000E+00    -3.55792E-01          1.96099E-02
      -6574     1.32034E+01    -1.13790E+01     0.00000E+00    -2.14548E-01         -5.69880E-02
      -6573     1.31994E+01    -1.13772E+01     0.00000E+00     2.88375E-01          2.28200E-01
      -6572     1.31954E+01    -1.13755E+01     0.00000E+00     2.19577E-01         -2.25013E-01
      -6571     1.31913E+01    -1.13738E+01     0.00000E+00    -2.90619E-01         -3.53295E-01
      -6570     1.31873E+01    -1.13720E+01     0.00000E+00    -1.09431E+00         -7.57583E-01
      -6569     1.31833E+01    -1.13703E+01     0.00000E+00     1.13397E+00         -2.69374E-01
      -6568     1.31793E+01    -1.13686E+01     0.00000E+00     5.01054E-01          7.63344E-01
      -6567     1.31753E+01    -1.13669E+01     0.00000E+00    -2.56879E-01         -4.53134E-01
      -6566     1.31713E+01    -1.13651E+01     0.00000E+00     5.57227E-01          2.96165E-01
      -6565     1.31673E+01    -1.13634E+01     0.00000E+00    -6.82519E-02         -8.93526E-01
      -6564     1.31632E+01    -1.13617E+01     0.00000E+00     2.70544E-01         -1.07436E-01
      -6563     1.31592E+01    -1.13599E+01     0.00000E+00     2.29211E-01          6.16953E-02
      -6562     1.31552E+01    -1.13582E+01     0.00000E+00    -2.28988E-01         -2.79830E-01
      -6561     1.31512E+01    -1.13565E+01     0.00000E+00     1.00008E-02          3.04675E-01
      -6560     1.31472E+01    -1.13547E+01     0.00000E+00     1.70625E-01          2.19608E-01
      -6559     1.31432E+01    -1.13530E+01     0.00000E+00     7.88695E-01          8.85568E-02
      -6558     1.31392E+01    -1.13513E+01     0.00000E+00     4.90070E-02          6.30989E-01
[...]
       7056     1.52105E+01     1.22133E+01     0.00000E+00     7.25878E-01          7.55942E-02
       7057     1.52148E+01     1.22150E+01     0.00000E+00    -4.56445E-01         -4.44774E-01
       7058     1.52191E+01     1.22167E+01     0.00000E+00    -2.83784E-01          4.07332E-01
       7059     1.52234E+01     1.22185E+01     0.00000E+00    -2.33578E-01          3.23739E-01
       7060     1.52277E+01     1.22202E+01     0.00000E+00    -1.37641E-02          6.22669E-02
       7061     1.52320E+01     1.22219E+01     0.00000E+00     5.61083E-01          6.14999E-01
       7062     1.52364E+01     1.22237E+01     0.00000E+00     2.91694E-01         -4.47773E-01
       7063     1.52407E+01     1.22254E+01     0.00000E+00     6.52847E-02         -3.28671E-01
       7064     1.52450E+01     1.22271E+01     0.00000E+00    -5.50023E-01         -8.22046E-01
       7065     1.52493E+01     1.22288E+01     0.00000E+00    -3.00236E-01          4.80479E-01
       7066     1.52536E+01     1.22306E+01     0.00000E+00     3.56935E-01         -3.46780E-01
       7067     1.52579E+01     1.22323E+01     0.00000E+00    -5.68279E-01         -3.86492E-01
       7068     1.52623E+01     1.22340E+01     0.00000E+00     2.25099E-01         -2.05649E-01
       7069     1.52666E+01     1.22358E+01     0.00000E+00     2.14395E-01          1.35273E-01
       7070     1.52709E+01     1.22375E+01     0.00000E+00     1.93404E-01          8.68442E-02
       7071     1.52752E+01     1.22392E+01     0.00000E+00    -3.66745E-01          1.25159E-01
       7072     1.52795E+01     1.22410E+01     0.00000E+00    -2.53615E-01         -5.85175E-02
       7073     1.52839E+01     1.22427E+01     0.00000E+00     4.52426E-02         -3.74452E-01
       7074     1.52882E+01     1.22444E+01     0.00000E+00     2.76005E-01         -4.01113E-01
       7075     1.52925E+01     1.22462E+01     0.00000E+00    -1.06682E-01         -1.83391E-01
       7076     1.52968E+01     1.22479E+01     0.00000E+00    -6.75629E-01          1.56317E-01
       7077     1.53012E+01     1.22496E+01     0.00000E+00     4.50452E-02          3.88253E-01
       7078     1.53055E+01     1.22513E+01     0.00000E+00     2.81582E-01          7.50935E-02
       7079     1.53098E+01     1.22531E+01     0.00000E+00     1.68316E-01         -2.25010E-02
       7080     1.53141E+01     1.22548E+01     0.00000E+00    -3.30634E-02         -3.09720E-01
       7081     1.53185E+01     1.22565E+01     0.00000E+00     1.18188E-01         -4.71421E-01
       7082     1.53228E+01     1.22583E+01     0.00000E+00     2.50832E-01          2.51050E-01
       7083     1.53271E+01     1.22600E+01     0.00000E+00    -6.74631E-01          2.23327E-02
       7084     1.53314E+01     1.22617E+01     0.00000E+00     7.69033E-02         -3.53891E-01
       7085     1.53358E+01     1.22635E+01     0.00000E+00     1.04491E-01          1.09809E-01
       7086     1.53401E+01     1.22652E+01     0.00000E+00     8.88260E-01         -2.51185E-01
       7087     1.53444E+01     1.22669E+01     0.00000E+00    -7.90603E-01          3.77984E-01
       7088     1.53488E+01     1.22687E+01     0.00000E+00    -4.17288E-01          2.60739E-01
       7089     1.53531E+01     1.22704E+01     0.00000E+00    -4.00073E-02          1.95188E-02
       7090     1.53574E+01     1.22721E+01     0.00000E+00     5.14921E-01         -1.41779E-02
       7091     1.53618E+01     1.22738E+01     0.00000E+00    -9.22719E-02          3.73845E-01
       7092     1.53661E+01     1.22756E+01     0.00000E+00    -8.11100E-01         -1.69456E-01
       7093     1.53704E+01     1.22773E+01     0.00000E+00     7.67405E-01          8.81326E-01
       7094     1.53748E+01     1.22790E+01     0.00000E+00    -7.87960E-01         -6.37257E-01
       7095     1.53791E+01     1.22808E+01     0.00000E+00     8.42041E-01          5.96904E-01
       7096     1.53834E+01     1.22825E+01     0.00000E+00     3.65498E-01          7.30271E-02
       7097     1.53878E+01     1.22842E+01     0.00000E+00     1.72305E-01         -1.85578E-01
       7098     1.53921E+01     1.22860E+01     0.00000E+00    -3.78147E-01         -2.23005E-02
       7099     1.53964E+01     1.22877E+01     0.00000E+00     6.50295E-01          4.87001E-01
       7100     1.54008E+01     1.22894E+01     0.00000E+00    -2.57848E-01         -4.52202E-01
       7101     1.54051E+01     1.22912E+01     0.00000E+00    -2.52880E-01          6.32999E-01
       7102     1.54094E+01     1.22929E+01     0.00000E+00     2.69897E-01          1.19337E-01
       7103     1.54138E+01     1.22946E+01     0.00000E+00     4.15343E-01         -3.54520E-02
       7104     1.54181E+01     1.22963E+01     0.00000E+00    -4.21059E-01         -7.79890E-02
       7105     1.54225E+01     1.22981E+01     0.00000E+00    -3.08608E-01         -4.14261E-01
       7106     1.54268E+01     1.22998E+01     0.00000E+00     9.29369E-01          4.11206E-01
       7107     1.54312E+01     1.23015E+01     0.00000E+00    -5.93154E-03         -9.00346E-01
       7108     1.54355E+01     1.23033E+01     0.00000E+00     7.49071E-01          7.59207E-01
       7109     1.54398E+01     1.23050E+01     0.00000E+00    -1.40939E-01         -4.50206E-01
       7110     1.54442E+01     1.23067E+01     0.00000E+00    -4.08226E-02          2.00829E-02
       7111     1.54485E+01     1.23085E+01     0.00000E+00     8.83113E-02          6.33844E-01
       7112     1.54529E+01     1.23102E+01     0.00000E+00    -4.21731E-01         -3.13211E-01
       7113     1.54572E+01     1.23119E+01     0.00000E+00     1.17369E-01          3.47845E-01
       7114     1.54616E+01     1.23137E+01     0.00000E+00     4.46195E-01         -1.94704E-01
       7115     1.54659E+01     1.23154E+01     0.00000E+00     3.94391E-01          1.74956E-01
       7116     1.54703E+01     1.23171E+01     0.00000E+00    -4.46949E-01          6.48560E-01
       7117     1.54746E+01     1.23189E+01     0.00000E+00    -2.77196E-01          5.71422E-01
       7118     1.54790E+01     1.23206E+01     0.00000E+00    -1.52374E-01          2.13661E-02
       7119     1.54833E+01     1.23223E+01     0.00000E+00     1.00878E-01          7.37683E-01
       7120     1.54877E+01     1.23240E+01     0.00000E+00    -3.66085E-01          1.28650E+00
       7121     1.54920E+01     1.23258E+01     0.00000E+00     9.24781E-02         -3.01375E-01
       7122     1.54964E+01     1.23275E+01     0.00000E+00     5.01422E-01         -2.73551E-01
       7123     1.55007E+01     1.23292E+01     0.00000E+00    -7.47386E-03          8.31079E-01
       7124     1.55051E+01     1.23310E+01     0.00000E+00    -3.61077E-01         -4.56833E-01
       7125     1.55094E+01     1.23327E+01     0.00000E+00     3.19263E-01          2.63657E-01
       7126     1.55138E+01     1.23344E+01     0.00000E+00    -5.82638E-01          1.45684E-01
       7127     1.55181E+01     1.23362E+01     0.00000E+00     1.86992E-01          1.97128E-01
       7128     1.55225E+01     1.23379E+01     0.00000E+00    -3.61975E-02          4.74829E-01
       7129     1.55268E+01     1.23396E+01     0.00000E+00     4.78344E-01         -2.27665E-01
       7130     1.55312E+01     1.23414E+01     0.00000E+00    -2.81199E-01         -5.10952E-01
       7131     1.55356E+01     1.23431E+01     0.00000E+00     1.55648E-01          9.71873E-02
       7132     1.55399E+01     1.23448E+01     0.00000E+00     1.83189E-03          5.28809E-01
       7133     1.55443E+01     1.23465E+01     0.00000E+00     6.98781E-01          8.86961E-01
       7134     1.55486E+01     1.23483E+01     0.00000E+00     7.36428E-01         -3.30935E-01
       7135     1.55530E+01     1.23500E+01     0.00000E+00     1.43086E-01          6.68562E-03
       7136     1.55573E+01     1.23517E+01     0.00000E+00    -1.67060E-01          4.10793E-02
       7137     1.55617E+01     1.23535E+01     0.00000E+00    -1.85378E-01         -6.02502E-01
       7138     1.55661E+01     1.23552E+01     0.00000E+00    -4.11831E-01         -3.08152E-02
       7139     1.55704E+01     1.23569E+01     0.00000E+00     1.31270E-01          6.06359E-02
       7140     1.55748E+01     1.23587E+01     0.00000E+00     5.30814E-01         -4.29816E-01
       7141     1.55792E+01     1.23604E+01     0.00000E+00     6.20144E-01          1.75633E-01
       7142     1.55835E+01     1.23621E+01     0.00000E+00    -2.78828E-01         -1.58843E-01
       7143     1.55879E+01     1.23639E+01     0.00000E+00     4.90720E-01          1.03692E-01
       7144     1.55922E+01     1.23656E+01     0.00000E+00    -1.58604E-01          3.66090E-01
       7145     1.55966E+01     1.23673E+01     0.00000E+00     2.82859E-01          9.57109E-02
       7146     1.56010E+01     1.23690E+01     0.00000E+00    -5.13386E-01          3.04352E-02
       7147     1.56053E+01     1.23708E+01     0.00000E+00     1.29397E-01         -4.11229E-01
       7148     1.56097E+01     1.23725E+01     0.00000E+00    -4.46875E-01          2.65855E-01
       7149     1.56141E+01     1.23742E+01     0.00000E+00     5.41291E-01         -1.46676E-01
       7150     1.56184E+01     1.23760E+01     0.00000E+00     1.83460E-01          7.19380E-02
       7151     1.56228E+01     1.23777E+01     0.00000E+00     5.94422E-01          6.94522E-02
       7152     1.56272E+01     1.23794E+01     0.00000E+00    -2.85901E-01          2.05622E-01
       7153     1.56316E+01     1.23812E+01     0.00000E+00     3.45561E-01         -3.01579E-01
       7154     1.56359E+01     1.23829E+01     0.00000E+00     1.89179E-01          1.04385E-01
       7155     1.56403E+01     1.23846E+01     0.00000E+00     2.94579E-01         -9.04418E-01
       7156     1.56447E+01     1.23864E+01     0.00000E+00    -1.83906E-01          1.96007E-01
       7157     1.56490E+01     1.23881E+01     0.00000E+00     1.99296E-01         -5.54775E-02
       7158     1.56534E+01     1.23898E+01     0.00000E+00     1.24073E-01          2.47277E-01
       7159     1.56578E+01     1.23915E+01     0.00000E+00     7.18034E-01         -2.11189E-01
       7160     1.56622E+01     1.23933E+01     0.00000E+00    -6.32663E-02         -4.07199E-01
       7161     1.56665E+01     1.23950E+01     0.00000E+00     1.06172E+00          4.35224E-01
       7162     1.56709E+01     1.23967E+01     0.00000E+00    -6.49022E-02         -3.73536E-01
       7163     1.56753E+01     1.23985E+01     0.00000E+00     3.49717E-01          5.36094E-01
       7164     1.56797E+01     1.24002E+01     0.00000E+00    -1.72075E-01         -3.69391E-01
       7165     1.56840E+01     1.24019E+01     0.00000E+00    -1.50835E-01         -6.96567E-01
       7166     1.56884E+01     1.24037E+01     0.00000E+00     2.39567E-01          6.94313E-02
       7167     1.56928E+01     1.24054E+01     0.00000E+00    -2.55476E-01         -6.07902E-02
       7168     1.56972E+01     1.24071E+01     0.00000E+00     7.70394E-02          1.15545E-01
       7169     1.57016E+01     1.24089E+01     0.00000E+00     6.27456E-01          1.83359E-01
       7170     1.57059E+01     1.24106E+01     0.00000E+00    -1.31349E-01         -3.55288E-01
       7171     1.57103E+01     1.24123E+01     0.00000E+00    -1.08700E+00         -1.45759E-01
       7172     1.57147E+01     1.24141E+01     0.00000E+00    -1.99142E-01         -2.02431E-03
       7173     1.57191E+01     1.24158E+01     0.00000E+00     8.51772E-02         -6.91372E-02
       7174     1.57235E+01     1.24175E+01     0.00000E+00    -4.73565E-02          4.37536E-02
       7175     1.57279E+01     1.24192E+01     0.00000E+00     2.88030E-01          4.50796E-01
       7176     1.57322E+01     1.24210E+01     0.00000E+00    -1.34941E-02          7.17322E-02
       7177     1.57366E+01     1.24227E+01     0.00000E+00    -3.31928E-01         -1.55521E-01
       7178     1.57410E+01     1.24244E+01     0.00000E+00     1.51111E-01         -1.46359E-01
       7179     1.57454E+01     1.24262E+01     0.00000E+00    -4.96403E-01         -2.76260E-01
       7180     1.57498E+01     1.24279E+01     0.00000E+00     1.78922E-01          3.70387E-02
       7181     1.57542E+01     1.24296E+01     0.00000E+00     8.35357E-01          4.31166E-01
       7182     1.57586E+01     1.24314E+01     0.00000E+00    -1.16310E-02          2.99393E-01
       7183     1.57630E+01     1.24331E+01     0.00000E+00     2.78879E-01         -7.81365E-02
       7184     1.57673E+01     1.24348E+01     0.00000E+00     7.34729E-02         -3.38884E-02
       7185     1.57717E+01     1.24366E+01     0.00000E+00     1.05131E-01         -3.28129E-01
       7186     1.57761E+01     1.24383E+01     0.00000E+00     3.68805E-01          4.03938E-01
       7187     1.57805E+01     1.24400E+01     0.00000E+00     5.94850E-01         -3.22007E-01
       7188     1.57849E+01     1.24417E+01     0.00000E+00    -4.67599E-02         -1.63160E-01
       7189     1.57893E+01     1.24435E+01     0.00000E+00     1.99771E-01          2.61420E-01
       7190     1.57937E+01     1.24452E+01     0.00000E+00    -5.66753E-03         -6.24395E-01
       7191     1.57981E+01     1.24469E+01     0.00000E+00     1.36660E-01         -3.71438E-01
       7192     1.58025E+01     1.24487E+01     0.00000E+00     3.67535E-01          3.19079E-01
       7193     1.58069E+01     1.24504E+01     0.00000E+00    -1.08049E+00         -2.02549E-01
       7194     1.58113E+01     1.24521E+01     0.00000E+00    -4.25014E-01         -2.03504E-01
       7195     1.58157E+01     1.24539E+01     0.00000E+00     7.81187E-01         -1.09268E-01
       7196     1.58201E+01     1.24556E+01     0.00000E+00     3.38677E-01         -3.09888E-01
       7197     1.58245E+01     1.24573E+01     0.00000E+00     2.14496E-01         -2.87726E-01
       7198     1.58289E+01     1.24591E+01     0.00000E+00     3.69784E-01          2.00718E-02
       7199     1.58333E+01     1.24608E+01     0.00000E+00    -2.37470E-01         -1.60709E-01
       7200     1.58377E+01     1.24625E+01     0.00000E+00     3.11672E-02          1.06004E-01
       7201     1.58421E+01     1.24642E+01     0.00000E+00     2.06329E-01          1.99979E-01
       7202     1.58465E+01     1.24660E+01     0.00000E+00     8.86805E-02         -4.26674E-01
       7203     1.58509E+01     1.24677E+01     0.00000E+00     1.58172E-01         -2.18648E-01
       7204     1.58553E+01     1.24694E+01     0.00000E+00     1.35054E-01         -1.07641E-01
       7205     1.58597E+01     1.24712E+01     0.00000E+00    -5.07562E-01         -2.16864E-01
       7206     1.58641E+01     1.24729E+01     0.00000E+00     7.20156E-01          3.97144E-01
       7207     1.58685E+01     1.24746E+01     0.00000E+00    -1.53920E-01         -4.39926E-01
       7208     1.58729E+01     1.24764E+01     0.00000E+00    -1.93595E-01         -4.45474E-02
       7209     1.58773E+01     1.24781E+01     0.00000E+00    -5.29552E-01         -2.25887E-01
       7210     1.58817E+01     1.24798E+01     0.00000E+00    -4.89569E-01         -4.11975E-01
       7211     1.58861E+01     1.24816E+01     0.00000E+00     2.24052E-01         -7.48804E-02
       7212     1.58905E+01     1.24833E+01     0.00000E+00     6.50996E-01         -1.20916E-01
       7213     1.58949E+01     1.24850E+01     0.00000E+00    -3.66463E-01          5.83406E-02
       7214     1.58993E+01     1.24867E+01     0.00000E+00     1.93084E-01         -2.65545E-01
       7215     1.59037E+01     1.24885E+01     0.00000E+00     1.78100E-01          3.46202E-01
       7216     1.59081E+01     1.24902E+01     0.00000E+00     3.95012E-01         -4.86122E-01
       7217     1.59125E+01     1.24919E+01     0.00000E+00    -3.33090E-01         -8.62251E-03
       7218     1.59169E+01     1.24937E+01     0.00000E+00    -3.78703E-01          5.78452E-02
       7219     1.59213E+01     1.24954E+01     0.00000E+00     3.23015E-01         -3.55877E-01
       7220     1.59258E+01     1.24971E+01     0.00000E+00     2.58009E-01         -7.25400E-01
       7221     1.59302E+01     1.24989E+01     0.00000E+00    -6.00706E-01          5.43114E-02
       7222     1.59346E+01     1.25006E+01     0.00000E+00     5.57434E-01          2.90820E-01
       7223     1.59390E+01     1.25023E+01     0.00000E+00    -6.21923E-01          4.54637E-01
       7224     1.59434E+01     1.25041E+01     0.00000E+00     1.57408E-01         -9.05925E-02
       7225     1.59478E+01     1.25058E+01     0.00000E+00     8.79561E-02          3.56472E-01
       7226     1.59522E+01     1.25075E+01     0.00000E+00     3.35866E-01         -3.63640E-01
       7227     1.59567E+01     1.25093E+01     0.00000E+00    -3.20273E-01         -4.29012E-01
       7228     1.59611E+01     1.25110E+01     0.00000E+00    -2.12931E-01          8.83392E-02
       7229     1.59655E+01     1.25127E+01     0.00000E+00     2.11281E-01         -2.86664E-01
       7230     1.59699E+01     1.25144E+01     0.00000E+00     1.11875E+00          3.27785E-01
       7231     1.59743E+01     1.25162E+01     0.00000E+00    -7.80439E-01         -2.29306E-02
       7232     1.59787E+01     1.25179E+01     0.00000E+00    -2.31069E-01         -4.66574E-01
       7233     1.59832E+01     1.25196E+01     0.00000E+00     6.55350E-02         -2.82606E-01
       7234     1.59876E+01     1.25214E+01     0.00000E+00     2.79772E-02          1.12508E-01
       7235     1.59920E+01     1.25231E+01     0.00000E+00    -2.32810E-01         -5.04118E-01
       7236     1.59964E+01     1.25248E+01     0.00000E+00     6.63081E-01          1.68517E-01
       7237     1.60008E+01     1.25266E+01     0.00000E+00    -2.12263E-01          4.87918E-01
       7238     1.60053E+01     1.25283E+01     0.00000E+00    -9.83175E-02          2.50330E-01
       7239     1.60097E+01     1.25300E+01     0.00000E+00     2.51226E-01          6.23188E-01
       7240     1.60141E+01     1.25318E+01     0.00000E+00     2.37114E-01          1.42404E-01
       7241     1.60185E+01     1.25335E+01     0.00000E+00     5.06155E-01          7.60256E-01
       7242     1.60230E+01     1.25352E+01     0.00000E+00    -9.49428E-02         -2.04646E-01
       7243     1.60274E+01     1.25369E+01     0.00000E+00     1.22623E-01          2.22197E-01
       7244     1.60318E+01     1.25387E+01     0.00000E+00    -8.10339E-01          5.66301E-02
       7245     1.60362E+01     1.25404E+01     0.00000E+00    -1.01281E-01         -3.47588E-01
       7246     1.60407E+01     1.25421E+01     0.00000E+00    -5.06642E-03          1.10280E-01
       7247     1.60451E+01     1.25439E+01     0.00000E+00    -1.60183E-01         -2.05699E-01
       7248     1.60495E+01     1.25456E+01     0.00000E+00    -2.98014E-01          3.44319E-01
       7249     1.60540E+01     1.25473E+01     0.00000E+00     3.82300E-01         -2.50260E-01
       7250     1.60584E+01     1.25491E+01     0.00000E+00    -4.59578E-02         -1.74991E-01
       7251     1.60628E+01     1.25508E+01     0.00000E+00     3.15678E-01          5.58920E-02
       7252     1.60672E+01     1.25525E+01     0.00000E+00    -2.32026E-01         -7.88833E-01
       7253     1.60717E+01     1.25543E+01     0.00000E+00    -3.25433E-01          1.25342E-01
       7254     1.60761E+01     1.25560E+01     0.00000E+00    -1.69422E-01         -2.02639E-01
       7255     1.60805E+01     1.25577E+01     0.00000E+00    -2.05058E-01          2.34122E-02
       7256     1.60850E+01     1.25594E+01     0.00000E+00    -6.55001E-02          6.24365E-03
       7257     1.60894E+01     1.25612E+01     0.00000E+00     1.44628E-01         -5.67727E-01
       7258     1.60938E+01     1.25629E+01     0.00000E+00    -7.49346E-01         -7.04546E-01
       7259     1.60983E+01     1.25646E+01     0.00000E+00     7.02607E-02          5.86068E-02
       7260     1.61027E+01     1.25664E+01     0.00000E+00     0.00000E+00          0.00000E+00

This summary file was closed on 30-Sep-2017 at 10:31:44.

