
 **************************************************************************************************
 OpenFAST

 Copyright (C) 2021 National Renewable Energy Laboratory
 Copyright (C) 2021 Envision Energy USA LTD

 This program is licensed under Apache License Version 2.0 and comes with ABSOLUTELY NO WARRANTY.
 See the "LICENSE" file distributed with this software for details.
 **************************************************************************************************

 OpenFAST-v2.5.0-10-gb4fd3acc
 Compile Info:
  - Compiler: GCC version 10.2.0
  - Architecture: 64 bit
  - Precision: double
  - Date: Jan 14 2021
  - Time: 17:19:34
 Execution Info:
  - Date: 01/14/2021
  - Time: 17:38:19-0600

 OpenFAST input file heading:
     FAST Certification Test #04: AWT-27CR2 with many DOFs with free yaw and FF turbulence.

 Running ElastoDyn.
 Nodal outputs section of ElastoDyn input file not found or improperly formatted.
 Running AeroDyn14.
 Running InflowWind.

    Reading a 6x6 grid (33 m wide, 26.172 m to 59.172 m above ground) with a characteristic wind
    speed of 12 m/s.

    Processed 1455 time steps of 20-Hz full-field data (72.7 seconds).
 Running ServoDyn.
  Time: 0 of 70 seconds.
                                                                                                   Time: 1 of 70 seconds.  Estimated final completion at 17:39:45.                                                                                                                                     Time: 2 of 70 seconds.  Estimated final completion at 17:39:46.                                                                                                                                     Time: 3 of 70 seconds.  Estimated final completion at 17:39:43.                                                                                                                                     Time: 4 of 70 seconds.  Estimated final completion at 17:39:45.                                                                                                                                     Time: 5 of 70 seconds.  Estimated final completion at 17:39:44.                                                                                                                                     Time: 6 of 70 seconds.  Estimated final completion at 17:39:39.                                                                                                                                     Time: 7 of 70 seconds.  Estimated final completion at 17:39:43.                                                                                                                                     Time: 8 of 70 seconds.  Estimated final completion at 17:39:42.                                                                                                                                     Time: 9 of 70 seconds.  Estimated final completion at 17:39:40.                                                                                                                                     Time: 10 of 70 seconds.  Estimated final completion at 17:39:42.                                                                                                                                    Time: 11 of 70 seconds.  Estimated final completion at 17:39:41.                                                                                                                                    Time: 12 of 70 seconds.  Estimated final completion at 17:39:41.                                                                                                                                    Time: 13 of 70 seconds.  Estimated final completion at 17:39:43.                                                                                                                                    Time: 14 of 70 seconds.  Estimated final completion at 17:39:43.                                                                                                                                    Time: 15 of 70 seconds.  Estimated final completion at 17:39:47.                                                                                                                                    Time: 16 of 70 seconds.  Estimated final completion at 17:39:44.                                                                                                                                    Time: 17 of 70 seconds.  Estimated final completion at 17:39:44.                                                                                                                                    Time: 18 of 70 seconds.  Estimated final completion at 17:39:44.                                                                                                                                    Time: 19 of 70 seconds.  Estimated final completion at 17:39:44.                                                                                                                                    Time: 20 of 70 seconds.  Estimated final completion at 17:39:43.                                                                                                                                    Time: 21 of 70 seconds.  Estimated final completion at 17:39:44.                                                                                                                                    Time: 22 of 70 seconds.  Estimated final completion at 17:39:45.                                                                                                                                    Time: 23 of 70 seconds.  Estimated final completion at 17:39:43.                                                                                                                                    Time: 24 of 70 seconds.  Estimated final completion at 17:39:45.                                                                                                                                    Time: 25 of 70 seconds.  Estimated final completion at 17:39:47.                                                                                                                                    Time: 26 of 70 seconds.  Estimated final completion at 17:39:52.                                                                                                                                    Time: 27 of 70 seconds.  Estimated final completion at 17:39:52.                                                                                                                                    Time: 28 of 70 seconds.  Estimated final completion at 17:39:52.                                                                                                                                    Time: 29 of 70 seconds.  Estimated final completion at 17:39:51.                                                                                                                                    Time: 30 of 70 seconds.  Estimated final completion at 17:39:48.                                                                                                                                    Time: 31 of 70 seconds.  Estimated final completion at 17:39:54.                                                                                                                                    Time: 32 of 70 seconds.  Estimated final completion at 17:39:52.                                                                                                                                    Time: 33 of 70 seconds.  Estimated final completion at 17:39:50.                                                                                                                                    Time: 34 of 70 seconds.  Estimated final completion at 17:39:50.                                                                                                                                    Time: 35 of 70 seconds.  Estimated final completion at 17:39:52.                                                                                                                                    Time: 36 of 70 seconds.  Estimated final completion at 17:39:50.                                                                                                                                    Time: 37 of 70 seconds.  Estimated final completion at 17:39:52.                                                                                                                                    Time: 38 of 70 seconds.  Estimated final completion at 17:39:53.                                                                                                                                    Time: 39 of 70 seconds.  Estimated final completion at 17:39:53.                                                                                                                                    Time: 40 of 70 seconds.  Estimated final completion at 17:39:50.                                                                                                                                    Time: 41 of 70 seconds.  Estimated final completion at 17:39:51.                                                                                                                                    Time: 42 of 70 seconds.  Estimated final completion at 17:39:50.                                                                                                                                    Time: 43 of 70 seconds.  Estimated final completion at 17:39:51.                                                                                                                                    Time: 44 of 70 seconds.  Estimated final completion at 17:39:51.                                                                                                                                    Time: 45 of 70 seconds.  Estimated final completion at 17:39:51.                                                                                                                                    Time: 46 of 70 seconds.  Estimated final completion at 17:39:53.                                                                                                                                    Time: 47 of 70 seconds.  Estimated final completion at 17:39:52.                                                                                                                                    Time: 48 of 70 seconds.  Estimated final completion at 17:39:50.                                                                                                                                    Time: 49 of 70 seconds.  Estimated final completion at 17:39:51.                                                                                                                                    Time: 50 of 70 seconds.  Estimated final completion at 17:39:51.                                                                                                                                    Time: 51 of 70 seconds.  Estimated final completion at 17:39:50.                                                                                                                                    Time: 52 of 70 seconds.  Estimated final completion at 17:39:51.                                                                                                                                    Time: 53 of 70 seconds.  Estimated final completion at 17:39:52.                                                                                                                                    Time: 54 of 70 seconds.  Estimated final completion at 17:39:51.                                                                                                                                    Time: 55 of 70 seconds.  Estimated final completion at 17:39:51.                                                                                                                                    Time: 56 of 70 seconds.  Estimated final completion at 17:39:51.                                                                                                                                    Time: 57 of 70 seconds.  Estimated final completion at 17:39:51.                                                                                                                                    Time: 58 of 70 seconds.  Estimated final completion at 17:39:51.                                                                                                                                    Time: 59 of 70 seconds.  Estimated final completion at 17:39:51.                                                                                                                                    Time: 60 of 70 seconds.  Estimated final completion at 17:39:51.                                                                                                                                    Time: 61 of 70 seconds.  Estimated final completion at 17:39:51.                                                                                                                                    Time: 62 of 70 seconds.  Estimated final completion at 17:39:52.                                                                                                                                    Time: 63 of 70 seconds.  Estimated final completion at 17:39:51.                                                                                                                                    Time: 64 of 70 seconds.  Estimated final completion at 17:39:51.                                                                                                                                    Time: 65 of 70 seconds.  Estimated final completion at 17:39:51.                                                                                                                                    Time: 66 of 70 seconds.  Estimated final completion at 17:39:51.                                                                                                                                    Time: 67 of 70 seconds.  Estimated final completion at 17:39:51.                                                                                                                                    Time: 68 of 70 seconds.  Estimated final completion at 17:39:51.                                                                                                                                    Time: 69 of 70 seconds.  Estimated final completion at 17:39:51.                                                                                                                                    Time: 70 of 70 seconds.  Estimated final completion at 17:39:51.                                                                                                                                   
  Total Real Time:       1.5259 minutes
  Total CPU Time:        1.5177 minutes
  Simulation CPU Time:   1.5164 minutes
  Simulated Time:        1.1667 minutes
  Time Ratio (Sim/CPU):  0.76938

  OpenFAST terminated normally.

