
**************************************************************************************************
OpenFAST

Copyright (C) 2022 National Renewable Energy Laboratory
Copyright (C) 2022 Envision Energy USA LTD

This program is licensed under Apache License Version 2.0 and comes with ABSOLUTELY NO WARRANTY.
See the "LICENSE" file distributed with this software for details.
**************************************************************************************************

OpenFAST-v3.1.0-243-ge6028eae
Compile Info:
 - Compiler: Intel(R) Fortran Intel(R) 64 Compiler Classic for applications running on Intel(R)
 64, Version 2021.1 Build 20201112_000000
 - Architecture: 64 bit
 - Precision: double
 - OpenMP: No
 - Date: Jul 06 2022
 - Time: 23:27:00
Execution Info:
 - Date: 07/07/2022
 - Time: 15:30:40-0500

OpenFAST input file heading:
    FAST Certification Test #22: NREL 5.0 MW Baseline Wind Turbine with ITI Barge Configuration,
    for use in offshore analysis

Running ElastoDyn.
Nodal outputs section of ElastoDyn input file not found or improperly formatted.
Running AeroDyn14.
  WARNING:   AeroDyn 14 is deprecated and will be removed in a future release.
Running InflowWind.

   Reading a 31x31 grid (145 m wide, 17.5 m to 162.5 m above ground) with a characteristic wind
   speed of 12 m/s. This full-field file was generated by TurbSim (from
   OpenFAST-v3.0.0-98-g7bde6b54) on 14-Sep-2021 at 11:49:55.

   Processed 1442 time steps of 20-Hz full-field data (72.05 seconds).
Running HydroDyn.
 Generating incident wave kinematics and current time history.
 Reading in WAMIT output with root name
 "C:\Users\rmudafor\Desktop\bonnie\build\reg_tests\glue-codes\openfast\5MW_ITIBarge_DLL_WTurb_Wave
 sIrr\../5MW_Baseline/HydroData/Barge".
 Computing radiation impulse response functions and wave diffraction forces.

Using SS_Radiation Module, with 30 of 30 radiation states


Running ServoDyn.
Running ServoDyn Interface for Bladed Controllers (using Intel Visual Fortran for Windows).
Using legacy Bladed DLL interface.
 Time: 0 of 60 seconds.                                                                                                   Time: 10 of 60 seconds.  Estimated final completion at 15:31:04.                                                                                                   Time: 20 of 60 seconds.  Estimated final completion at 15:31:02.                                                                                                   Time: 30 of 60 seconds.  Estimated final completion at 15:31:02.                                                                                                   Time: 40 of 60 seconds.  Estimated final completion at 15:31:02.                                                                                                   Time: 50 of 60 seconds.  Estimated final completion at 15:31:02.                                                                                                   Time: 60 of 60 seconds.  Estimated final completion at 15:31:02.                                                                                                  

 Total Real Time:       21.999 seconds
 Total CPU Time:        21.859 seconds
 Simulation CPU Time:   20.562 seconds
 Simulated Time:        60 seconds
 Time Ratio (Sim/CPU):  2.9179

 OpenFAST terminated normally.

MAP++ environment properties (set externally)...
    Gravity constant          [m/s^2]  : 9.81
    Sea density               [kg/m^3] : 1025.00
    Water depth               [m]      : 150.00
    Vessel reference position [m]      : 0.00 , 0.00 , 0.00
