
**************************************************************************************************
OpenFAST

Copyright (C) 2021 National Renewable Energy Laboratory
Copyright (C) 2021 Envision Energy USA LTD

This program is licensed under Apache License Version 2.0 and comes with ABSOLUTELY NO WARRANTY.
See the "LICENSE" file distributed with this software for details.
**************************************************************************************************

OpenFAST-v1.0.0-1800-g1082ba16
Compile Info:
 - Compiler: Intel(R) Fortran Intel(R) 64 Compiler Classic for applications running on Intel(R)
 64, Version 2021.1 Build 20201112_000000
 - Architecture: 64 bit
 - Precision: double
 - Date: Jan 28 2021
 - Time: 16:01:43
Execution Info:
 - Date: 01/28/2021
 - Time: 17:24:26-0600

OpenFAST input file heading:
    FAST Certification Test #22: NREL 5.0 MW Baseline Wind Turbine with ITI Barge Configuration,
    for use in offshore analysis

Running ElastoDyn.
Nodal outputs section of ElastoDyn input file not found or improperly formatted.
Running AeroDyn14.
Running InflowWind.

   Reading a 31x31 grid (145 m wide, 17.5 m to 162.5 m above ground) with a characteristic wind
   speed of 12 m/s. This full-field file was generated by TurbSim (v1.06.00, 21-Sep-2012) on
   07-Jan-2014 at 12:50:45.

   Processed 1442 time steps of 20-Hz full-field data (72.05 seconds).
Running ServoDyn.
Running ServoDyn Interface for Bladed Controllers (using Intel Visual Fortran for Windows, ).
Using legacy Bladed DLL interface.
Running HydroDyn.
 Generating incident wave kinematics and current time history.
 Reading in WAMIT output with root name
 "C:\Users\rmudafor\Desktop\tcf\openfast\build\reg_tests\glue-codes\openfast\5MW_ITIBarge_DLL_WTur
 b_WavesIrr\../5MW_Baseline/HydroData/Barge".
 Computing radiation impulse response functions and wave diffraction forces.

Using SS_Radiation Module, with 30 of 30 radiation states


 Time: 0 of 60 seconds.

FAST_Solution0:CalcOutputs_And_SolveForInputs:SolveOption2:SrvD_CalcOutput:DLL_controller_call:Run
ning with torque and pitch control of the NREL offshore 5MW baseline wind turbine from DISCON.dll
as written by J. Jonkman of NREL/NWTC for use in the IEA Annex XXIII OC3 studies. Includes
modifications for ITI Barge.
                                                                                                   Time: 10 of 60 seconds.  Estimated final completion at 17:24:47.                                                                                                   Time: 20 of 60 seconds.  Estimated final completion at 17:24:47.                                                                                                   Time: 30 of 60 seconds.  Estimated final completion at 17:24:47.                                                                                                   Time: 40 of 60 seconds.  Estimated final completion at 17:24:47.                                                                                                   Time: 50 of 60 seconds.  Estimated final completion at 17:24:47.                                                                                                   Time: 60 of 60 seconds.  Estimated final completion at 17:24:47.                                                                                                  

 Total Real Time:       20.372 seconds
 Total CPU Time:        20.344 seconds
 Simulation CPU Time:   19.438 seconds
 Simulated Time:        60 seconds
 Time Ratio (Sim/CPU):  3.0868

 OpenFAST terminated normally.

MAP++ environment properties (set externally)...
    Gravity constant          [m/s^2]  : 9.81
    Sea density               [kg/m^3] : 1025.00
    Water depth               [m]      : 150.00
    Vessel reference position [m]      : 0.00 , 0.00 , 0.00
