
 **************************************************************************************************
 OpenFAST

 Copyright (C) 2021 National Renewable Energy Laboratory
 Copyright (C) 2021 Envision Energy USA LTD

 This program is licensed under Apache License Version 2.0 and comes with ABSOLUTELY NO WARRANTY.
 See the "LICENSE" file distributed with this software for details.
 **************************************************************************************************

 OpenFAST-v2.5.0-10-gb4fd3acc
 Compile Info:
  - Compiler: GCC version 10.2.0
  - Architecture: 64 bit
  - Precision: double
  - Date: Jan 14 2021
  - Time: 17:19:34
 Execution Info:
  - Date: 01/14/2021
  - Time: 17:43:22-0600

 OpenFAST input file heading:
     Elliptical wing test case for OLAF free vortex wake in AD15

 Running ElastoDyn.
 Nodal outputs section of ElastoDyn input file not found or improperly formatted.
 Running AeroDyn.
 Nodal output section of AeroDyn input file not found or improperly formatted.
 Running FVW.
  - Directory:         /home/raf/Development/openfast/build/reg_tests
  - RootName:
  /home/raf/Development/openfast/build/reg_tests/glue-codes/openfast/EllipticalWing_OLAF/Elliptical
  Wing_OLAF.
  - No OpenMP support
 Running InflowWind.

 FAST_InitializeAll: IfW_Init:IfW_UniformWind_Init: Could not read upflow column in uniform wind
 files. Assuming upflow is 0.

  Time: 0 of 1000 seconds.
                                                                                                   Time: 100 of 1000 seconds.  Estimated final completion at 17:43:29.                                                                                                                                 Time: 200 of 1000 seconds.  Estimated final completion at 17:43:24.                                                                                                                                 Time: 300 of 1000 seconds.  Estimated final completion at 17:43:23.                                                                                                                                 Time: 400 of 1000 seconds.  Estimated final completion at 17:43:24.                                                                                                                                 Time: 500 of 1000 seconds.  Estimated final completion at 17:43:24.                                                                                                                                 Time: 600 of 1000 seconds.  Estimated final completion at 17:43:24.                                                                                                                                 Time: 700 of 1000 seconds.  Estimated final completion at 17:43:24.                                                                                                                                 Time: 800 of 1000 seconds.  Estimated final completion at 17:43:24.                                                                                                                                 Time: 900 of 1000 seconds.  Estimated final completion at 17:43:24.                                                                                                                                 Time: 1000 of 1000 seconds.  Estimated final completion at 17:43:24.                                                                                                                               
  Total Real Time:       1.101 seconds
  Total CPU Time:        1.0938 seconds
  Simulation CPU Time:   1.0312 seconds
  Simulated Time:        1000 seconds
  Time Ratio (Sim/CPU):  969.7

  OpenFAST terminated normally.

