
 **************************************************************************************************
 OpenFAST

 Copyright (C) 2022 National Renewable Energy Laboratory
 Copyright (C) 2022 Envision Energy USA LTD

 This program is licensed under Apache License Version 2.0 and comes with ABSOLUTELY NO WARRANTY.
 See the "LICENSE" file distributed with this software for details.
 **************************************************************************************************

 OpenFAST-v2.0.0-2969-gb31de164
 Compile Info:
  - Compiler: Intel(R) Fortran Intel(R) 64 Compiler Classic for applications running on Intel(R)
  64, Version 2021.1 Build 20201112_000000
  - Architecture: 64 bit
  - Precision: double
  - OpenMP: No
  - Date: Jul 06 2022
  - Time: 12:42:05
 Execution Info:
  - Date: 07/06/2022
  - Time: 12:56:32-0500

 OpenFAST input file heading:
     FAST Certification Test #23: NREL 5.0 MW Baseline Wind Turbine with MIT-NREL TLP
     Configuration, for use in offshore analysis

 Running ElastoDyn.
 Nodal outputs section of ElastoDyn input file not found or improperly formatted.
 Running AeroDyn.
 AD15 Nodal Outputs: Nodal output section of AeroDyn input file not found or improperly formatted.
 Skipping nodal outputs.
 Warning: Turning off Unsteady Aerodynamics because UA parameters are not included in airfoil
 (airfoil has likely has constant polars). (node 1, blade 1)
 Warning: Turning off Unsteady Aerodynamics because UA parameters are not included in airfoil
 (airfoil has likely has constant polars). (node 2, blade 1)
 Warning: Turning off Unsteady Aerodynamics because UA parameters are not included in airfoil
 (airfoil has likely has constant polars). (node 3, blade 1)
 Warning: Turning off Unsteady Aerodynamics because UA parameters are not included in airfoil
 (airfoil has likely has constant polars). (node 4, blade 1)
 Warning: Turning off Unsteady Aerodynamics because UA parameters are not included in airfoil
 (airfoil has likely has constant polars). (node 1, blade 2)
 Warning: Turning off Unsteady Aerodynamics because UA parameters are not included in airfoil
 (airfoil has likely has constant polars). (node 2, blade 2)
 Warning: Turning off Unsteady Aerodynamics because UA parameters are not included in airfoil
 (airfoil has likely has constant polars). (node 3, blade 2)
 Warning: Turning off Unsteady Aerodynamics because UA parameters are not included in airfoil
 (airfoil has likely has constant polars). (node 4, blade 2)
 Warning: Turning off Unsteady Aerodynamics because UA parameters are not included in airfoil
 (airfoil has likely has constant polars). (node 1, blade 3)
 Warning: Turning off Unsteady Aerodynamics because UA parameters are not included in airfoil
 (airfoil has likely has constant polars). (node 2, blade 3)
 Warning: Turning off Unsteady Aerodynamics because UA parameters are not included in airfoil
 (airfoil has likely has constant polars). (node 3, blade 3)
 Warning: Turning off Unsteady Aerodynamics because UA parameters are not included in airfoil
 (airfoil has likely has constant polars). (node 4, blade 3)
 Running InflowWind.

    Reading a 31x31 grid (145 m wide, 17.5 m to 162.5 m above ground) with a characteristic wind
    speed of 12 m/s. This full-field file was generated by TurbSim (v1.06.00, 21-Sep-2012) on
    07-Jan-2014 at 12:50:45.

    Processed 1442 time steps of 20-Hz full-field data (72.05 seconds).
 Running HydroDyn.
  Generating incident wave kinematics and current time history.
  Reading in WAMIT output with root name
  "/home/raf/Development/emmanuel/build_intel/reg_tests/glue-codes/openfast/5MW_TLP_DLL_WTurb_Waves
  Irr_WavesMulti/../5MW_Baseline/HydroData/tlpmit".
  Computing radiation impulse response functions and wave diffraction forces.


 Running ServoDyn.
 Running ServoDyn Interface for Bladed Controllers (using Intel Fortran for Linux, ).
 Using legacy Bladed DLL interface.

 FAST_InitializeAll:HydroDyn_Init:Waves_Init:VariousWaves_Init:Changed WaveNDir from 13 to 15 so
 that an equal number of frequencies are assigned to each direction.

  Time: 0 of 60 seconds.
+                                                                                                  
+ Time: 1 of 60 seconds.  Estimated final completion at 12:57:30.
+                                                                                                  
+ Time: 2 of 60 seconds.  Estimated final completion at 12:57:50.
+                                                                                                  
+ Time: 3 of 60 seconds.  Estimated final completion at 12:57:33.
+                                                                                                  
+ Time: 4 of 60 seconds.  Estimated final completion at 12:57:24.
+                                                                                                  
+ Time: 5 of 60 seconds.  Estimated final completion at 12:57:23.
+                                                                                                  
+ Time: 6 of 60 seconds.  Estimated final completion at 12:57:32.
+                                                                                                  
+ Time: 7 of 60 seconds.  Estimated final completion at 12:57:40.
+                                                                                                  
+ Time: 8 of 60 seconds.  Estimated final completion at 12:57:37.
+                                                                                                  
+ Time: 9 of 60 seconds.  Estimated final completion at 12:57:26.
+                                                                                                  
+ Time: 10 of 60 seconds.  Estimated final completion at 12:57:28.
+                                                                                                  
+ Time: 11 of 60 seconds.  Estimated final completion at 12:57:38.
+                                                                                                  
+ Time: 12 of 60 seconds.  Estimated final completion at 12:57:26.
+                                                                                                  
+ Time: 13 of 60 seconds.  Estimated final completion at 12:57:27.
+                                                                                                  
+ Time: 14 of 60 seconds.  Estimated final completion at 12:57:29.
+                                                                                                  
+ Time: 15 of 60 seconds.  Estimated final completion at 12:57:28.
+                                                                                                  
+ Time: 16 of 60 seconds.  Estimated final completion at 12:57:28.
+                                                                                                  
+ Time: 17 of 60 seconds.  Estimated final completion at 12:57:31.
+                                                                                                  
+ Time: 18 of 60 seconds.  Estimated final completion at 12:57:33.
+                                                                                                  
+ Time: 19 of 60 seconds.  Estimated final completion at 12:57:30.
+                                                                                                  
+ Time: 20 of 60 seconds.  Estimated final completion at 12:57:27.
+                                                                                                  
+ Time: 21 of 60 seconds.  Estimated final completion at 12:57:25.
+                                                                                                  
+ Time: 22 of 60 seconds.  Estimated final completion at 12:57:26.
+                                                                                                  
+ Time: 23 of 60 seconds.  Estimated final completion at 12:57:33.
+                                                                                                  
+ Time: 24 of 60 seconds.  Estimated final completion at 12:57:28.
+                                                                                                  
+ Time: 25 of 60 seconds.  Estimated final completion at 12:57:28.
+                                                                                                  
+ Time: 26 of 60 seconds.  Estimated final completion at 12:57:26.
+                                                                                                  
+ Time: 27 of 60 seconds.  Estimated final completion at 12:57:29.
+                                                                                                  
+ Time: 28 of 60 seconds.  Estimated final completion at 12:57:29.
+                                                                                                  
+ Time: 29 of 60 seconds.  Estimated final completion at 12:57:26.
+                                                                                                  
+ Time: 30 of 60 seconds.  Estimated final completion at 12:57:33.
+                                                                                                  
+ Time: 31 of 60 seconds.  Estimated final completion at 12:57:27.
+                                                                                                  
+ Time: 32 of 60 seconds.  Estimated final completion at 12:57:31.
+                                                                                                  
+ Time: 33 of 60 seconds.  Estimated final completion at 12:57:35.
+                                                                                                  
+ Time: 34 of 60 seconds.  Estimated final completion at 12:57:28.
+                                                                                                  
+ Time: 35 of 60 seconds.  Estimated final completion at 12:57:36.
+                                                                                                  
+ Time: 36 of 60 seconds.  Estimated final completion at 12:57:32.
+                                                                                                  
+ Time: 37 of 60 seconds.  Estimated final completion at 12:57:30.
+                                                                                                  
+ Time: 38 of 60 seconds.  Estimated final completion at 12:57:30.
+                                                                                                  
+ Time: 39 of 60 seconds.  Estimated final completion at 12:57:30.
+                                                                                                  
+ Time: 40 of 60 seconds.  Estimated final completion at 12:57:30.
+                                                                                                  
+ Time: 41 of 60 seconds.  Estimated final completion at 12:57:28.
+                                                                                                  
+ Time: 42 of 60 seconds.  Estimated final completion at 12:57:29.
+                                                                                                  
+ Time: 43 of 60 seconds.  Estimated final completion at 12:57:29.
+                                                                                                  
+ Time: 44 of 60 seconds.  Estimated final completion at 12:57:28.
+                                                                                                  
+ Time: 45 of 60 seconds.  Estimated final completion at 12:57:28.
+                                                                                                  
+ Time: 46 of 60 seconds.  Estimated final completion at 12:57:31.
+                                                                                                  
+ Time: 47 of 60 seconds.  Estimated final completion at 12:57:31.
+                                                                                                  
+ Time: 48 of 60 seconds.  Estimated final completion at 12:57:29.
+                                                                                                  
+ Time: 49 of 60 seconds.  Estimated final completion at 12:57:30.
+                                                                                                  
+ Time: 50 of 60 seconds.  Estimated final completion at 12:57:30.
+                                                                                                  
+ Time: 51 of 60 seconds.  Estimated final completion at 12:57:29.
+                                                                                                  
+ Time: 52 of 60 seconds.  Estimated final completion at 12:57:30.
+                                                                                                  
+ Time: 53 of 60 seconds.  Estimated final completion at 12:57:29.
+                                                                                                  
+ Time: 54 of 60 seconds.  Estimated final completion at 12:57:29.
+                                                                                                  
+ Time: 55 of 60 seconds.  Estimated final completion at 12:57:30.
+                                                                                                  
+ Time: 56 of 60 seconds.  Estimated final completion at 12:57:31.
+                                                                                                  
+ Time: 57 of 60 seconds.  Estimated final completion at 12:57:30.
+                                                                                                  
+ Time: 58 of 60 seconds.  Estimated final completion at 12:57:30.
+                                                                                                  
+ Time: 59 of 60 seconds.  Estimated final completion at 12:57:30.
+                                                                                                  
+ Time: 60 of 60 seconds.  Estimated final completion at 12:57:30.
+                                                                                                  

  Total Real Time:       57.147 seconds
  Total CPU Time:        57.144 seconds
  Simulation CPU Time:   55.365 seconds
  Simulated Time:        60 seconds
  Time Ratio (Sim/CPU):  1.0837

  OpenFAST terminated normally.

MAP++ environment properties (set externally)...
    Gravity constant          [m/s^2]  : 9.81
    Sea density               [kg/m^3] : 1025.00
    Water depth               [m]      : 200.00
    Vessel reference position [m]      : 0.00 , 0.00 , 0.00
