
 **************************************************************************************************
 OpenFAST

 Copyright (C) 2020 National Renewable Energy Laboratory
 Copyright (C) 2020 Envision Energy USA LTD

 This program is licensed under Apache License Version 2.0 and comes with ABSOLUTELY NO WARRANTY.
 See the "LICENSE" file distributed with this software for details.
 **************************************************************************************************

 OpenFAST-v2.4.0-53-g8bfd804f
 Compile Info:
  - Compiler: GCC version 7.5.0
  - Architecture: 64 bit
  - Precision: double
  - Date: Nov  6 2020
  - Time: 18:38:52
 Execution Info:
  - Date: 11/06/2020
  - Time: 22:00:51+0000

 OpenFAST input file heading:
     FAST Certification Test #21: NREL 5.0 MW Baseline Offshore Turbine with OC4 Jacket
     Configuration

 Running ElastoDyn.
 Nodal outputs section of ElastoDyn input file not found or improperly formatted.
 Running AeroDyn.
 Nodal output section of AeroDyn input file not found or improperly formatted.
 Warning: Turning off Unsteady Aerodynamics because C_nalpha is 0. (node 1, blade 1)
 Warning: Turning off Unsteady Aerodynamics because C_nalpha is 0. (node 2, blade 1)
 Warning: Turning off Unsteady Aerodynamics because C_nalpha is 0. (node 3, blade 1)
 Warning: Turning off Unsteady Aerodynamics because C_nalpha is 0. (node 4, blade 1)
 Warning: Turning off Unsteady Aerodynamics because C_nalpha is 0. (node 1, blade 2)
 Warning: Turning off Unsteady Aerodynamics because C_nalpha is 0. (node 2, blade 2)
 Warning: Turning off Unsteady Aerodynamics because C_nalpha is 0. (node 3, blade 2)
 Warning: Turning off Unsteady Aerodynamics because C_nalpha is 0. (node 4, blade 2)
 Warning: Turning off Unsteady Aerodynamics because C_nalpha is 0. (node 1, blade 3)
 Warning: Turning off Unsteady Aerodynamics because C_nalpha is 0. (node 2, blade 3)
 Warning: Turning off Unsteady Aerodynamics because C_nalpha is 0. (node 3, blade 3)
 Warning: Turning off Unsteady Aerodynamics because C_nalpha is 0. (node 4, blade 3)
 Running InflowWind.

    Reading a 31x31 grid (145 m wide, 17.5 m to 162.5 m above ground) with a characteristic wind
    speed of 12 m/s. This full-field file was generated by TurbSim (v1.06.00, 21-Sep-2012) on
    07-Jan-2014 at 12:50:45.

    Processed 1442 time steps of 20-Hz full-field data (72.05 seconds).
 Running ServoDyn.
 Running ServoDyn Interface for Bladed Controllers (using GNU Fortran for Linux, ).
 Using legacy Bladed DLL interface.
 Running HydroDyn.
  Generating incident wave kinematics and current time history.
 Running SubDyn.
    Calculating Internal Modal Eigenvectors

 FAST_InitializeAll:HydroDyn_Init:Waves_Init:VariousWaves_Init: The random number generator in use
 differs from the original code provided by NREL. This pRNG uses 33 seeds instead of the 2 in the
 HydroDyn input file.

  Time: 0 of 60 seconds.

 FAST_Solution0:CalcOutputs_And_SolveForInputs:SolveOption2:SrvD_CalcOutput:DLL_controller_call:Run
 ning with torque and pitch control of the NREL offshore 5MW baseline wind turbine from DISCON.dll
 as written by J. Jonkman of NREL/NWTC for use in the IEA Annex XXIII OC3 studies.


 FAST_Solution:FAST_AdvanceStates:SrvD_UpdateStates:DLL_controller_call:BladedInterface option was
 designed for an explicit-loose coupling scheme. Using last calculated values from DLL on all
 subsequent calls until time is advanced. Warning will not be displayed again.

                                                                                                   Time: 1 of 60 seconds.  Estimated final completion at 03:10:10.                                                                                                                                     Time: 2 of 60 seconds.  Estimated final completion at 22:43:57.                                                                                                                                     Time: 3 of 60 seconds.  Estimated final completion at 22:39:10.                                                                                                                                     Time: 4 of 60 seconds.  Estimated final completion at 22:40:16.                                                                                                                                     Time: 5 of 60 seconds.  Estimated final completion at 22:38:48.                                                                                                                                     Time: 6 of 60 seconds.  Estimated final completion at 22:38:31.                                                                                                                                     Time: 7 of 60 seconds.  Estimated final completion at 22:40:22.                                                                                                                                     Time: 8 of 60 seconds.  Estimated final completion at 22:38:46.                                                                                                                                     Time: 9 of 60 seconds.  Estimated final completion at 22:38:48.                                                                                                                                     Time: 10 of 60 seconds.  Estimated final completion at 22:40:01.                                                                                                                                    Time: 11 of 60 seconds.  Estimated final completion at 22:42:05.                                                                                                                                    Time: 12 of 60 seconds.  Estimated final completion at 22:42:35.                                                                                                                                    Time: 13 of 60 seconds.  Estimated final completion at 22:53:10.                                                                                                                                    Time: 14 of 60 seconds.  Estimated final completion at 22:52:44.                                                                                                                                    Time: 15 of 60 seconds.  Estimated final completion at 22:40:51.                                                                                                                                    Time: 16 of 60 seconds.  Estimated final completion at 22:42:35.                                                                                                                                    Time: 17 of 60 seconds.  Estimated final completion at 22:41:15.                                                                                                                                    Time: 18 of 60 seconds.  Estimated final completion at 22:40:55.                                                                                                                                    Time: 19 of 60 seconds.  Estimated final completion at 22:41:30.                                                                                                                                    Time: 20 of 60 seconds.  Estimated final completion at 22:43:13.                                                                                                                                    Time: 21 of 60 seconds.  Estimated final completion at 22:42:17.                                                                                                                                    Time: 22 of 60 seconds.  Estimated final completion at 22:43:33.                                                                                                                                    Time: 23 of 60 seconds.  Estimated final completion at 22:44:13.                                                                                                                                    Time: 24 of 60 seconds.  Estimated final completion at 22:40:07.                                                                                                                                    Time: 25 of 60 seconds.  Estimated final completion at 22:39:38.                                                                                                                                    Time: 26 of 60 seconds.  Estimated final completion at 22:41:04.                                                                                                                                    Time: 27 of 60 seconds.  Estimated final completion at 22:40:29.                                                                                                                                    Time: 28 of 60 seconds.  Estimated final completion at 22:41:59.                                                                                                                                    Time: 29 of 60 seconds.  Estimated final completion at 22:41:50.                                                                                                                                    Time: 30 of 60 seconds.  Estimated final completion at 22:40:24.                                                                                                                                    Time: 31 of 60 seconds.  Estimated final completion at 23:01:23.                                                                                                                                    Time: 32 of 60 seconds.  Estimated final completion at 23:06:33.                                                                                                                                    Time: 33 of 60 seconds.  Estimated final completion at 23:04:23.                                                                                                                                    Time: 34 of 60 seconds.  Estimated final completion at 23:10:01.                                                                                                                                    Time: 35 of 60 seconds.  Estimated final completion at 22:58:14.                                                                                                                                    Time: 36 of 60 seconds.  Estimated final completion at 22:43:57.                                                                                                                                    Time: 37 of 60 seconds.  Estimated final completion at 22:44:50.                                                                                                                                    Time: 38 of 60 seconds.  Estimated final completion at 22:46:32.                                                                                                                                    Time: 39 of 60 seconds.  Estimated final completion at 22:44:40.                                                                                                                                    Time: 40 of 60 seconds.  Estimated final completion at 22:44:02.                                                                                                                                    Time: 41 of 60 seconds.  Estimated final completion at 22:44:44.                                                                                                                                    Time: 42 of 60 seconds.  Estimated final completion at 22:47:06.                                                                                                                                    Time: 43 of 60 seconds.  Estimated final completion at 22:43:34.                                                                                                                                    Time: 44 of 60 seconds.  Estimated final completion at 22:43:41.                                                                                                                                    Time: 45 of 60 seconds.  Estimated final completion at 22:43:28.                                                                                                                                    Time: 46 of 60 seconds.  Estimated final completion at 22:43:23.                                                                                                                                    Time: 47 of 60 seconds.  Estimated final completion at 22:43:22.                                                                                                                                    Time: 48 of 60 seconds.  Estimated final completion at 22:43:16.                                                                                                                                    Time: 49 of 60 seconds.  Estimated final completion at 22:44:01.                                                                                                                                    Time: 50 of 60 seconds.  Estimated final completion at 22:47:13.                                                                                                                                    Time: 51 of 60 seconds.  Estimated final completion at 22:44:10.                                                                                                                                    Time: 52 of 60 seconds.  Estimated final completion at 22:44:11.                                                                                                                                    Time: 53 of 60 seconds.  Estimated final completion at 22:44:25.                                                                                                                                    Time: 54 of 60 seconds.  Estimated final completion at 22:44:29.                                                                                                                                    Time: 55 of 60 seconds.  Estimated final completion at 22:44:25.                                                                                                                                    Time: 56 of 60 seconds.  Estimated final completion at 22:44:24.                                                                                                                                    Time: 57 of 60 seconds.  Estimated final completion at 22:44:25.                                                                                                                                    Time: 58 of 60 seconds.  Estimated final completion at 22:44:24.                                                                                                                                    Time: 59 of 60 seconds.  Estimated final completion at 22:44:25.                                                                                                                                    Time: 60 of 60 seconds.  Estimated final completion at 22:44:25.                                                                                                                                   
  Total Real Time:       43.719 minutes
  Total CPU Time:        43.58 minutes
  Simulation CPU Time:   42.798 minutes
  Simulated Time:        1 minutes
  Time Ratio (Sim/CPU):  2.33656E-02

  OpenFAST terminated normally.

