
 **************************************************************************************************
 OpenFAST

 Copyright (C) 2020 National Renewable Energy Laboratory
 Copyright (C) 2020 Envision Energy USA LTD

 This program is licensed under Apache License Version 2.0 and comes with ABSOLUTELY NO WARRANTY.
 See the "LICENSE" file distributed with this software for details.
 **************************************************************************************************

 OpenFAST-v2.4.0-50-g416ff436
 Compile Info:
  - Compiler: GCC version 7.4.0
  - Architecture: 64 bit
  - Precision: double
  - Date: Nov  6 2020
  - Time: 12:35:02
 Execution Info:
  - Date: 11/06/2020
  - Time: 12:35:37-0700

 OpenFAST input file heading:
     FAST Certification Test #05: AWT-27CR2 with many DOFs with startup and shutdown and FF
     turbulence.

 Running ElastoDyn.
 Nodal outputs section of ElastoDyn input file not found or improperly formatted.
 Running AeroDyn.
 Nodal output section of AeroDyn input file not found or improperly formatted.
 Running InflowWind.
 Running ServoDyn.
  Time: 0 of 30 seconds.
 The BEM solution is being turned off due to low TSR.  (TSR = 0). This warning will not be
 repeated though the condition may persist. (See GeomPhi output channel.)
                                                                                                   Time: 1 of 30 seconds.  Estimated final completion at 12:36:16.                                                                                                                                     Time: 2 of 30 seconds.  Estimated final completion at 12:36:18.                                                                                                                                     Time: 3 of 30 seconds.  Estimated final completion at 12:36:22.                                                                                                                                     Time: 4 of 30 seconds.  Estimated final completion at 12:36:20.                                                                                                                                     Time: 5 of 30 seconds.  Estimated final completion at 12:36:20.                                                                                                                                     Time: 6 of 30 seconds.  Estimated final completion at 12:36:24.                                                                                                                                     Time: 7 of 30 seconds.  Estimated final completion at 12:36:25.                                                                                                                                     Time: 8 of 30 seconds.  Estimated final completion at 12:36:25.                                                                                                                                     Time: 9 of 30 seconds.  Estimated final completion at 12:36:24.                                                                                                                                     Time: 10 of 30 seconds.  Estimated final completion at 12:36:24.                                                                                                                                    Time: 11 of 30 seconds.  Estimated final completion at 12:36:24.                                                                                                                                    Time: 12 of 30 seconds.  Estimated final completion at 12:36:26.                                                                                                                                    Time: 13 of 30 seconds.  Estimated final completion at 12:36:27.                                                                                                                                    Time: 14 of 30 seconds.  Estimated final completion at 12:36:25.                                                                                                                                    Time: 15 of 30 seconds.  Estimated final completion at 12:36:25.                                                                                                                                    Time: 16 of 30 seconds.  Estimated final completion at 12:36:24.                                                                                                                                    Time: 17 of 30 seconds.  Estimated final completion at 12:36:24.                                                                                                                                    Time: 18 of 30 seconds.  Estimated final completion at 12:36:24.                                                                                                                                    Time: 19 of 30 seconds.  Estimated final completion at 12:36:25.                                                                                                                                    Time: 20 of 30 seconds.  Estimated final completion at 12:36:25.                                                                                                                                    Time: 21 of 30 seconds.  Estimated final completion at 12:36:26.                                                                                                                                    Time: 22 of 30 seconds.  Estimated final completion at 12:36:26.                                                                                                                                    Time: 23 of 30 seconds.  Estimated final completion at 12:36:26.                                                                                                                                    Time: 24 of 30 seconds.  Estimated final completion at 12:36:26.                                                                                                                                    Time: 25 of 30 seconds.  Estimated final completion at 12:36:27.                                                                                                                                    Time: 26 of 30 seconds.  Estimated final completion at 12:36:27.                                                                                                                                    Time: 27 of 30 seconds.  Estimated final completion at 12:36:28.                                                                                                                                    Time: 28 of 30 seconds.  Estimated final completion at 12:36:29.                                                                                                                                    Time: 29 of 30 seconds.  Estimated final completion at 12:36:29.                                                                                                                                    Time: 30 of 30 seconds.  Estimated final completion at 12:36:29.                                                                                                                                   
  Total Real Time:       51.677 seconds
  Total CPU Time:        46.676 seconds
  Simulation CPU Time:   46.641 seconds
  Simulated Time:        30.004 seconds
  Time Ratio (Sim/CPU):  0.6433

  OpenFAST terminated normally.

