
 **************************************************************************************************
 OpenFAST

 Copyright (C) 2020 National Renewable Energy Laboratory
 Copyright (C) 2020 Envision Energy USA LTD

 This program is licensed under Apache License Version 2.0 and comes with ABSOLUTELY NO WARRANTY.
 See the "LICENSE" file distributed with this software for details.
 **************************************************************************************************

 OpenFAST-v2.4.0-53-g8bfd804f
 Compile Info:
  - Compiler: GCC version 7.5.0
  - Architecture: 64 bit
  - Precision: double
  - Date: Nov  6 2020
  - Time: 18:38:52
 Execution Info:
  - Date: 11/06/2020
  - Time: 21:57:27+0000

 OpenFAST input file heading:
     FAST Certification Test #10: UAE Phase VI (upwind) with no DOFs in a ramped wind.

 Running ElastoDyn.
 Nodal outputs section of ElastoDyn input file not found or improperly formatted.
 Running AeroDyn.
 Nodal output section of AeroDyn input file not found or improperly formatted.
 Running InflowWind.
 Running ServoDyn.
  Time: 0 of 25 seconds.
                                                                                                   Time: 1 of 25 seconds.  Estimated final completion at 21:58:11.                                                                                                                                     Time: 2 of 25 seconds.  Estimated final completion at 21:58:11.                                                                                                                                     Time: 3 of 25 seconds.  Estimated final completion at 21:58:12.                                                                                                                                     Time: 4 of 25 seconds.  Estimated final completion at 21:58:12.                                                                                                                                     Time: 5 of 25 seconds.  Estimated final completion at 21:58:14.                                                                                                                                     Time: 6 of 25 seconds.  Estimated final completion at 21:58:13.                                                                                                                                     Time: 7 of 25 seconds.  Estimated final completion at 21:58:13.                                                                                                                                     Time: 8 of 25 seconds.  Estimated final completion at 21:58:12.                                                                                                                                     Time: 9 of 25 seconds.  Estimated final completion at 21:58:11.                                                                                                                                     Time: 10 of 25 seconds.  Estimated final completion at 21:58:12.                                                                                                                                    Time: 11 of 25 seconds.  Estimated final completion at 21:58:13.                                                                                                                                    Time: 12 of 25 seconds.  Estimated final completion at 21:58:12.                                                                                                                                    Time: 13 of 25 seconds.  Estimated final completion at 21:58:12.                                                                                                                                    Time: 14 of 25 seconds.  Estimated final completion at 21:58:12.                                                                                                                                    Time: 15 of 25 seconds.  Estimated final completion at 21:58:12.                                                                                                                                    Time: 16 of 25 seconds.  Estimated final completion at 21:58:13.                                                                                                                                    Time: 17 of 25 seconds.  Estimated final completion at 21:58:12.                                                                                                                                    Time: 18 of 25 seconds.  Estimated final completion at 21:58:12.                                  The BEM solution is being turned off due to low TSR.  (TSR = 1.9996). This warning will not be
 repeated though the condition may persist. (See GeomPhi output channel.)
                                                                                                   Time: 19 of 25 seconds.  Estimated final completion at 21:58:13.                                                                                                                                    Time: 20 of 25 seconds.  Estimated final completion at 21:58:13.                                                                                                                                    Time: 21 of 25 seconds.  Estimated final completion at 21:58:13.                                                                                                                                    Time: 22 of 25 seconds.  Estimated final completion at 21:58:12.                                                                                                                                    Time: 23 of 25 seconds.  Estimated final completion at 21:58:12.                                                                                                                                    Time: 24 of 25 seconds.  Estimated final completion at 21:58:12.                                                                                                                                    Time: 25 of 25 seconds.  Estimated final completion at 21:58:12.                                                                                                                                   
  Total Real Time:       44.983 seconds
  Total CPU Time:        44.786 seconds
  Simulation CPU Time:   44.757 seconds
  Simulated Time:        25 seconds
  Time Ratio (Sim/CPU):  0.55857

  OpenFAST terminated normally.

