
 **************************************************************************************************
 OpenFAST

 Copyright (C) 2021 National Renewable Energy Laboratory
 Copyright (C) 2021 Envision Energy USA LTD

 This program is licensed under Apache License Version 2.0 and comes with ABSOLUTELY NO WARRANTY.
 See the "LICENSE" file distributed with this software for details.
 **************************************************************************************************

 OpenFAST-v2.5.0-10-gb4fd3acc
 Compile Info:
  - Compiler: GCC version 10.2.0
  - Architecture: 64 bit
  - Precision: double
  - Date: Jan 14 2021
  - Time: 17:19:34
 Execution Info:
  - Date: 01/14/2021
  - Time: 17:38:36-0600

 OpenFAST input file heading:
     FAST Certification Test #10: UAE Phase VI (upwind) with no DOFs in a ramped wind.

 Running ElastoDyn.
 Nodal outputs section of ElastoDyn input file not found or improperly formatted.
 Running AeroDyn.
 Nodal output section of AeroDyn input file not found or improperly formatted.
 Running InflowWind.
 Running ServoDyn.

 FAST_InitializeAll: IfW_Init:IfW_UniformWind_Init: Could not read upflow column in uniform wind
 files. Assuming upflow is 0.

  Time: 0 of 25 seconds.
                                                                                                   Time: 1 of 25 seconds.  Estimated final completion at 17:39:33.                                                                                                                                     Time: 2 of 25 seconds.  Estimated final completion at 17:39:32.                                                                                                                                     Time: 3 of 25 seconds.  Estimated final completion at 17:39:32.                                                                                                                                     Time: 4 of 25 seconds.  Estimated final completion at 17:39:31.                                                                                                                                     Time: 5 of 25 seconds.  Estimated final completion at 17:39:30.                                                                                                                                     Time: 6 of 25 seconds.  Estimated final completion at 17:39:34.                                                                                                                                     Time: 7 of 25 seconds.  Estimated final completion at 17:39:40.                                                                                                                                     Time: 8 of 25 seconds.  Estimated final completion at 17:39:39.                                                                                                                                     Time: 9 of 25 seconds.  Estimated final completion at 17:39:39.                                                                                                                                     Time: 10 of 25 seconds.  Estimated final completion at 17:39:39.                                                                                                                                    Time: 11 of 25 seconds.  Estimated final completion at 17:39:39.                                                                                                                                    Time: 12 of 25 seconds.  Estimated final completion at 17:39:38.                                                                                                                                    Time: 13 of 25 seconds.  Estimated final completion at 17:39:39.                                                                                                                                    Time: 14 of 25 seconds.  Estimated final completion at 17:39:39.                                                                                                                                    Time: 15 of 25 seconds.  Estimated final completion at 17:39:38.                                                                                                                                    Time: 16 of 25 seconds.  Estimated final completion at 17:39:39.                                                                                                                                    Time: 17 of 25 seconds.  Estimated final completion at 17:39:39.                                                                                                                                    Time: 18 of 25 seconds.  Estimated final completion at 17:39:39.                                  The BEM solution is being turned off due to low TSR.  (TSR = 1.9996). This warning will not be
 repeated though the condition may persist. (See GeomPhi output channel.)
                                                                                                   Time: 19 of 25 seconds.  Estimated final completion at 17:39:38.                                                                                                                                    Time: 20 of 25 seconds.  Estimated final completion at 17:39:38.                                                                                                                                    Time: 21 of 25 seconds.  Estimated final completion at 17:39:38.                                                                                                                                    Time: 22 of 25 seconds.  Estimated final completion at 17:39:38.                                                                                                                                    Time: 23 of 25 seconds.  Estimated final completion at 17:39:38.                                                                                                                                    Time: 24 of 25 seconds.  Estimated final completion at 17:39:38.                                                                                                                                    Time: 25 of 25 seconds.  Estimated final completion at 17:39:38.                                                                                                                                   
  Total Real Time:       1.0314 minutes
  Total CPU Time:        1.0247 minutes
  Simulation CPU Time:   1.0237 minutes
  Simulated Time:        0.41667 minutes
  Time Ratio (Sim/CPU):  0.40702

  OpenFAST terminated normally.

