MAP++ environment properties (set externally)...
    Gravity constant          [m/s^2]  : 9.81
    Sea density               [kg/m^3] : 1025.00
    Water depth               [m]      : 320.00
    Vessel reference position [m]      : 0.00 , 0.00 , 0.00

 **************************************************************************************************
 OpenFAST

 Copyright (C) 2023 National Renewable Energy Laboratory
 Copyright (C) 2023 Envision Energy USA LTD

 This program is licensed under Apache License Version 2.0 and comes with ABSOLUTELY NO WARRANTY.
 See the "LICENSE" file distributed with this software for details.
 **************************************************************************************************

 OpenFAST-v3.5.0-118-g2774b6c4-dirty
 Compile Info:
  - Compiler: GCC version 10.5.0
  - Architecture: 64 bit
  - Precision: double
  - OpenMP: No
  - Date: Oct 16 2023
  - Time: 11:00:11
 Execution Info:
  - Date: 10/16/2023
  - Time: 11:00:25-0600

 OpenFAST input file heading:
     FAST Certification Test #24: NREL 5.0 MW Baseline Wind Turbine with OC3 Hywind Configuration,
     for use in offshore analysis

 Running ElastoDyn.
 Nodal outputs section of ElastoDyn input file not found or improperly formatted.
 Running AeroDyn.
 AD15 Nodal Outputs: Nodal output section of AeroDyn input file not found or improperly formatted.
 Skipping nodal outputs.
 Warning: Turning off Unsteady Aerodynamics because polar has constant data. (node 1, blade 1)
 Warning: Turning off Unsteady Aerodynamics because polar has constant data. (node 2, blade 1)
 Warning: Turning off Unsteady Aerodynamics because polar has constant data. (node 3, blade 1)
 Warning: Turning off Unsteady Aerodynamics because polar has constant data. (node 4, blade 1)
 Warning: Turning off Unsteady Aerodynamics because polar has constant data. (node 1, blade 2)
 Warning: Turning off Unsteady Aerodynamics because polar has constant data. (node 2, blade 2)
 Warning: Turning off Unsteady Aerodynamics because polar has constant data. (node 3, blade 2)
 Warning: Turning off Unsteady Aerodynamics because polar has constant data. (node 4, blade 2)
 Warning: Turning off Unsteady Aerodynamics because polar has constant data. (node 1, blade 3)
 Warning: Turning off Unsteady Aerodynamics because polar has constant data. (node 2, blade 3)
 Warning: Turning off Unsteady Aerodynamics because polar has constant data. (node 3, blade 3)
 Warning: Turning off Unsteady Aerodynamics because polar has constant data. (node 4, blade 3)
 Running InflowWind.

    Reading a 31x31 grid (145 m wide, 17.5 m to 162.5 m above ground) with a characteristic wind
    speed of 12 m/s. This full-field file was generated by TurbSim (from
    OpenFAST-v3.0.0-98-g7bde6b54) on 14-Sep-2021 at 11:49:55.

    Processed 1442 time steps of 20-Hz grid-field data (72.05 seconds).
 Running HydroDyn.
  Generating incident wave kinematics and current time history.
  Reading in WAMIT output with root name
  "/Users/aplatt/software-development/GitHub/openfast-4/build/reg_tests/glue-codes/openfast/5MW_OC3
  Spar_DLL_WTurb_WavesIrr/../5MW_Baseline/HydroData/Spar".
  Computing radiation impulse response functions and wave diffraction forces.


 Running ServoDyn.
 Running ServoDyn Interface for Bladed Controllers (using GNU Fortran for Linux).
 Using legacy Bladed DLL interface.

 FAST_InitializeAll:HydroDyn_Init:Waves_Init:VariousWaves_Init: The random number generator in use
 differs from the original code provided by NREL. This pRNG uses 8 seeds instead of the 2 in the
 HydroDyn input file.

  Time: 0 of 60 seconds.
                                                                                                   Time: 1 of 60 seconds.  Estimated final completion at 11:01:09.                                                                                                                                     Time: 2 of 60 seconds.  Estimated final completion at 11:01:08.                                                                                                                                     Time: 3 of 60 seconds.  Estimated final completion at 11:01:00.                                                                                                                                     Time: 4 of 60 seconds.  Estimated final completion at 11:01:00.                                                                                                                                     Time: 5 of 60 seconds.  Estimated final completion at 11:01:05.                                                                                                                                     Time: 6 of 60 seconds.  Estimated final completion at 11:01:03.                                                                                                                                     Time: 7 of 60 seconds.  Estimated final completion at 11:01:04.                                                                                                                                     Time: 8 of 60 seconds.  Estimated final completion at 11:00:58.                                                                                                                                     Time: 9 of 60 seconds.  Estimated final completion at 11:00:59.                                                                                                                                     Time: 10 of 60 seconds.  Estimated final completion at 11:01:00.                                                                                                                                    Time: 11 of 60 seconds.  Estimated final completion at 11:00:60.                                                                                                                                    Time: 12 of 60 seconds.  Estimated final completion at 11:01:01.                                                                                                                                    Time: 13 of 60 seconds.  Estimated final completion at 11:00:59.                                                                                                                                    Time: 14 of 60 seconds.  Estimated final completion at 11:00:59.                                                                                                                                    Time: 15 of 60 seconds.  Estimated final completion at 11:01:00.                                                                                                                                    Time: 16 of 60 seconds.  Estimated final completion at 11:01:04.                                                                                                                                    Time: 17 of 60 seconds.  Estimated final completion at 11:01:02.                                                                                                                                    Time: 18 of 60 seconds.  Estimated final completion at 11:01:03.                                                                                                                                    Time: 19 of 60 seconds.  Estimated final completion at 11:01:02.                                                                                                                                    Time: 20 of 60 seconds.  Estimated final completion at 11:01:02.                                                                                                                                    Time: 21 of 60 seconds.  Estimated final completion at 11:01:02.                                                                                                                                    Time: 22 of 60 seconds.  Estimated final completion at 11:01:03.                                                                                                                                    Time: 23 of 60 seconds.  Estimated final completion at 11:01:04.                                                                                                                                    Time: 24 of 60 seconds.  Estimated final completion at 11:01:01.                                                                                                                                    Time: 25 of 60 seconds.  Estimated final completion at 11:01:04.                                                                                                                                    Time: 26 of 60 seconds.  Estimated final completion at 11:01:02.                                                                                                                                    Time: 27 of 60 seconds.  Estimated final completion at 11:01:07.                                                                                                                                    Time: 28 of 60 seconds.  Estimated final completion at 11:01:06.                                                                                                                                    Time: 29 of 60 seconds.  Estimated final completion at 11:01:05.                                                                                                                                    Time: 30 of 60 seconds.  Estimated final completion at 11:01:07.                                                                                                                                    Time: 31 of 60 seconds.  Estimated final completion at 11:01:06.                                                                                                                                    Time: 32 of 60 seconds.  Estimated final completion at 11:01:09.                                                                                                                                    Time: 33 of 60 seconds.  Estimated final completion at 11:01:04.                                                                                                                                    Time: 34 of 60 seconds.  Estimated final completion at 11:01:03.                                                                                                                                    Time: 35 of 60 seconds.  Estimated final completion at 11:01:03.                                                                                                                                    Time: 36 of 60 seconds.  Estimated final completion at 11:01:04.                                                                                                                                    Time: 37 of 60 seconds.  Estimated final completion at 11:01:03.                                                                                                                                    Time: 38 of 60 seconds.  Estimated final completion at 11:01:04.                                                                                                                                    Time: 39 of 60 seconds.  Estimated final completion at 11:01:04.                                                                                                                                    Time: 40 of 60 seconds.  Estimated final completion at 11:01:06.                                                                                                                                    Time: 41 of 60 seconds.  Estimated final completion at 11:01:07.                                                                                                                                    Time: 42 of 60 seconds.  Estimated final completion at 11:01:09.                                                                                                                                    Time: 43 of 60 seconds.  Estimated final completion at 11:01:06.                                                                                                                                    Time: 44 of 60 seconds.  Estimated final completion at 11:01:04.                                                                                                                                    Time: 45 of 60 seconds.  Estimated final completion at 11:01:05.                                                                                                                                    Time: 46 of 60 seconds.  Estimated final completion at 11:01:05.                                                                                                                                    Time: 47 of 60 seconds.  Estimated final completion at 11:01:05.                                                                                                                                    Time: 48 of 60 seconds.  Estimated final completion at 11:01:05.                                                                                                                                    Time: 49 of 60 seconds.  Estimated final completion at 11:01:06.                                                                                                                                    Time: 50 of 60 seconds.  Estimated final completion at 11:01:06.                                                                                                                                    Time: 51 of 60 seconds.  Estimated final completion at 11:01:05.                                                                                                                                    Time: 52 of 60 seconds.  Estimated final completion at 11:01:05.                                                                                                                                    Time: 53 of 60 seconds.  Estimated final completion at 11:01:05.                                                                                                                                    Time: 54 of 60 seconds.  Estimated final completion at 11:01:05.                                                                                                                                    Time: 55 of 60 seconds.  Estimated final completion at 11:01:05.                                                                                                                                    Time: 56 of 60 seconds.  Estimated final completion at 11:01:05.                                                                                                                                    Time: 57 of 60 seconds.  Estimated final completion at 11:01:06.                                                                                                                                    Time: 58 of 60 seconds.  Estimated final completion at 11:01:06.                                                                                                                                    Time: 59 of 60 seconds.  Estimated final completion at 11:01:06.                                                                                                                                    Time: 60 of 60 seconds.  Estimated final completion at 11:01:05.                                                                                                                                   
  Total Real Time:       40.215 seconds
  Total CPU Time:        37.601 seconds
  Simulation CPU Time:   35.918 seconds
  Simulated Time:        60 seconds
  Time Ratio (Sim/CPU):  1.6705

  OpenFAST terminated normally.

