
 **************************************************************************************************
 OpenFAST

 Copyright (C) 2024 National Renewable Energy Laboratory
 Copyright (C) 2024 Envision Energy USA LTD

 This program is licensed under Apache License Version 2.0 and comes with ABSOLUTELY NO WARRANTY.
 See the "LICENSE" file distributed with this software for details.
 **************************************************************************************************

 OpenFAST--128-NOTFOUND
 Compile Info:
  - Compiler: GCC version 12.3.0
  - Architecture: 64 bit
  - Precision: double
  - OpenMP: Yes, number of threads: 4/4
  - Date: Dec 19 2024
  - Time: 16:18:29
 Execution Info:
  - Date: 12/19/2024
  - Time: 16:44:21+0000

 OpenFAST input file heading:
     Based on FAST Certification Test #18: NREL 5.0 MW Baseline Wind Turbine (Onshore) with
     AeroDisk

  Running ElastoDyn.
 Nodal outputs section of ElastoDyn input file not found or improperly formatted.
  Running InflowWind.

    Reading a 31x31 grid (145 m wide, 17.5 m to 162.5 m above ground) with a characteristic wind
    speed of 12 m/s. This full-field file was generated by TurbSim (from
    OpenFAST-v3.0.0-98-g7bde6b54) on 14-Sep-2021 at 11:49:55.

    Processed 1442 time steps of 20-Hz grid-field data (72.05 seconds).
  Running AeroDisk.
  Running ServoDyn.
  Running ServoDyn Interface for Bladed Controllers (using GNU Fortran for Linux).
 Using legacy Bladed DLL interface.

 FAST_InitializeAll:ED_Init:ED_ReadInput:ReadBladeInputs:ReadBladeFile:The ElastoDyn Blade file,
 /home/runner/work/openfast/openfast/build/reg_tests/glue-codes/openfast/5MW_Land_DLL_WTurb_ADsk/..
 /5MW_Baseline/NRELOffshrBsline5MW_Blade.dat, DISTRIBUTED BLADE PROPERTIES table contains the
 PitchAxis column.  This column is unused and will be removed in future releases

  Time: 0 of 60 seconds.
                                                                                                   Time: 5 of 60 seconds.  Estimated final completion at 16:44:44.                                                                                                                                     Time: 10 of 60 seconds.  Estimated final completion at 16:44:45.                                                                                                                                    Time: 15 of 60 seconds.  Estimated final completion at 16:44:43.                                                                                                                                    Time: 20 of 60 seconds.  Estimated final completion at 16:44:44.                                                                                                                                    Time: 25 of 60 seconds.  Estimated final completion at 16:44:46.                                                                                                                                    Time: 30 of 60 seconds.  Estimated final completion at 16:44:45.                                                                                                                                    Time: 35 of 60 seconds.  Estimated final completion at 16:44:46.                                                                                                                                    Time: 40 of 60 seconds.  Estimated final completion at 16:44:46.                                                                                                                                    Time: 45 of 60 seconds.  Estimated final completion at 16:44:43.                                                                                                                                    Time: 50 of 60 seconds.  Estimated final completion at 16:44:44.                                                                                                                                    Time: 55 of 60 seconds.  Estimated final completion at 16:44:44.                                                                                                                                    Time: 60 of 60 seconds.  Estimated final completion at 16:44:44.                                                                                                                                   
  Total Real Time:       22.291 seconds
  Total CPU Time:        13.827 seconds
  Simulation CPU Time:   13.421 seconds
  Simulated Time:        60 seconds
  Time Ratio (Sim/CPU):  4.4706

  OpenFAST terminated normally.

