
 **************************************************************************************************
 OpenFAST

 Copyright (C) 2022 National Renewable Energy Laboratory
 Copyright (C) 2022 Envision Energy USA LTD

 This program is licensed under Apache License Version 2.0 and comes with ABSOLUTELY NO WARRANTY.
 See the "LICENSE" file distributed with this software for details.
 **************************************************************************************************

 OpenFAST-v3.3.0-249-g56d78904-dirty
 Compile Info:
  - Compiler: GCC version 10.3.0
  - Architecture: 64 bit
  - Precision: double
  - OpenMP: No
  - Date: Nov  1 2022
  - Time: 17:07:50
 Execution Info:
  - Date: 11/01/2022
  - Time: 17:46:25-0600

 OpenFAST input file heading:
     Based on FAST Certification Test #18: NREL 5.0 MW Baseline Wind Turbine (Onshore) with
     AeroDisk

 Running ElastoDyn.
 Nodal outputs section of ElastoDyn input file not found or improperly formatted.
 Running AeroDisk.
 Running InflowWind.

    Reading a 31x31 grid (145 m wide, 17.5 m to 162.5 m above ground) with a characteristic wind
    speed of 12 m/s. This full-field file was generated by TurbSim (from
    OpenFAST-v3.0.0-98-g7bde6b54) on 14-Sep-2021 at 11:49:55.

    Processed 1442 time steps of 20-Hz full-field data (72.05 seconds).
 Running ServoDyn.
 Running ServoDyn Interface for Bladed Controllers (using GNU Fortran for Linux).
 Using legacy Bladed DLL interface.
  Time: 0 of 60 seconds.
                                                                                                   Time: 5 of 60 seconds.  Estimated final completion at 17:46:48.                                                                                                                                     Time: 10 of 60 seconds.  Estimated final completion at 17:46:47.                                                                                                                                    Time: 15 of 60 seconds.  Estimated final completion at 17:46:48.                                                                                                                                    Time: 20 of 60 seconds.  Estimated final completion at 17:46:48.                                                                                                                                    Time: 25 of 60 seconds.  Estimated final completion at 17:46:48.                                                                                                                                    Time: 30 of 60 seconds.  Estimated final completion at 17:46:48.                                                                                                                                    Time: 35 of 60 seconds.  Estimated final completion at 17:46:48.                                                                                                                                    Time: 40 of 60 seconds.  Estimated final completion at 17:46:48.                                                                                                                                    Time: 45 of 60 seconds.  Estimated final completion at 17:46:48.                                                                                                                                    Time: 50 of 60 seconds.  Estimated final completion at 17:46:48.                                                                                                                                    Time: 55 of 60 seconds.  Estimated final completion at 17:46:48.                                                                                                                                    Time: 60 of 60 seconds.  Estimated final completion at 17:46:48.                                                                                                                                   
  Total Real Time:       22.839 seconds
  Total CPU Time:        22.585 seconds
  Simulation CPU Time:   22.18 seconds
  Simulated Time:        60 seconds
  Time Ratio (Sim/CPU):  2.7051

  OpenFAST terminated normally.

