
 **************************************************************************************************
 OpenFAST

 Copyright (C) 2020 National Renewable Energy Laboratory
 Copyright (C) 2020 Envision Energy USA LTD

 This program is licensed under Apache License Version 2.0 and comes with ABSOLUTELY NO WARRANTY.
 See the "LICENSE" file distributed with this software for details.
 **************************************************************************************************

 OpenFAST-v2.4.0-50-g416ff436
 Compile Info:
  - Compiler: GCC version 7.4.0
  - Architecture: 64 bit
  - Precision: double
  - Date: Nov  6 2020
  - Time: 12:35:02
 Execution Info:
  - Date: 11/06/2020
  - Time: 12:37:46-0700

 OpenFAST input file heading:
     IEA task 37 RWT turbine -- https://github.com/IEAWindTask37/IEA-3.4-130-RWT

 Running ElastoDyn.
 Nodal outputs section of ElastoDyn input file not found or improperly formatted.
 Running AeroDyn.
 Nodal output section of AeroDyn input file not found or improperly formatted.
 Warning: Turning off Unsteady Aerodynamics because C_nalpha is 0. (node 1, blade 1)
 Warning: Turning off Unsteady Aerodynamics because C_nalpha is 0. (node 2, blade 1)
 Warning: Turning off Unsteady Aerodynamics because C_nalpha is 0. (node 1, blade 2)
 Warning: Turning off Unsteady Aerodynamics because C_nalpha is 0. (node 2, blade 2)
 Warning: Turning off Unsteady Aerodynamics because C_nalpha is 0. (node 1, blade 3)
 Warning: Turning off Unsteady Aerodynamics because C_nalpha is 0. (node 2, blade 3)
 Running AeroAcoustics (v1.00.00, 18-Aug-2016).
 Running InflowWind.
  Time: 0 of 20 seconds.
                                                                                                   Time: 5 of 20 seconds.  Estimated final completion at 12:39:14.                                                                                                                                     Time: 10 of 20 seconds.  Estimated final completion at 12:39:14.                                                                                                                                    Time: 15 of 20 seconds.  Estimated final completion at 12:39:20.                                                                                                                                    Time: 20 of 20 seconds.  Estimated final completion at 12:39:25.                                                                                                                                   
  Total Real Time:       1.6281 minutes
  Total CPU Time:        1.4088 minutes
  Simulation CPU Time:   1.4048 minutes
  Simulated Time:        0.33333 minutes
  Time Ratio (Sim/CPU):  0.23728

  OpenFAST terminated normally.

