
 **************************************************************************************************
 HydroDyn Driver

 Copyright (C) 2021 National Renewable Energy Laboratory
 Copyright (C) 2021 Envision Energy USA LTD

 This program is licensed under Apache License Version 2.0 and comes with ABSOLUTELY NO WARRANTY.
 See the "LICENSE" file distributed with this software for details.
 **************************************************************************************************

  Running HydroDyn Driver a part of OpenFAST - v2.5.0-480-g1082ba16-dirty
  linked with NWTC Subroutine Library

 Opening HydroDyn Driver input file:
 /Users/aplatt/software-development/GitHub/openfast-4/build-DP-gcc10/reg_tests/modules/hydrodyn/hd_
 5MW_OC4Semi_WSt_WavesWN/hd_driver.inp
 Running HydroDyn.
  Generating incident wave kinematics and current time history.
  Reading in WAMIT output with root name
  "./../../../glue-codes/openfast/5MW_Baseline/HydroData/marin_semi".
  Computing radiation impulse response functions and wave diffraction forces.
  Calculating second order difference-frequency force using the full quadratic transfer function.
  Calculating second order sum-frequency force using the full quadratic transfer function.
  Time: 0 of 60.013 seconds.
                                                                                                   Time: 1 of 60.013 seconds.  Estimated final completion at 09:26:15.                                                                                                                                 Time: 2 of 60.013 seconds.  Estimated final completion at 09:26:15.                                                                                                                                 Time: 3 of 60.013 seconds.  Estimated final completion at 09:26:15.                                                                                                                                 Time: 4 of 60.013 seconds.  Estimated final completion at 09:26:15.                                                                                                                                 Time: 5 of 60.013 seconds.  Estimated final completion at 09:26:15.                                                                                                                                 Time: 6 of 60.013 seconds.  Estimated final completion at 09:26:15.                                                                                                                                 Time: 7 of 60.013 seconds.  Estimated final completion at 09:26:15.                                                                                                                                 Time: 8 of 60.013 seconds.  Estimated final completion at 09:26:16.                                                                                                                                 Time: 9 of 60.013 seconds.  Estimated final completion at 09:26:15.                                                                                                                                 Time: 10 of 60.013 seconds.  Estimated final completion at 09:26:15.                                                                                                                                Time: 11 of 60.013 seconds.  Estimated final completion at 09:26:15.                                                                                                                                Time: 12 of 60.013 seconds.  Estimated final completion at 09:26:15.                                                                                                                                Time: 13 of 60.013 seconds.  Estimated final completion at 09:26:15.                                                                                                                                Time: 14 of 60.013 seconds.  Estimated final completion at 09:26:15.                                                                                                                                Time: 15 of 60.013 seconds.  Estimated final completion at 09:26:15.                                                                                                                                Time: 16 of 60.013 seconds.  Estimated final completion at 09:26:15.                                                                                                                                Time: 17 of 60.013 seconds.  Estimated final completion at 09:26:16.                                                                                                                                Time: 18 of 60.013 seconds.  Estimated final completion at 09:26:16.                                                                                                                                Time: 19 of 60.013 seconds.  Estimated final completion at 09:26:16.                                                                                                                                Time: 20 of 60.013 seconds.  Estimated final completion at 09:26:16.                                                                                                                                Time: 21 of 60.013 seconds.  Estimated final completion at 09:26:16.                                                                                                                                Time: 22 of 60.013 seconds.  Estimated final completion at 09:26:16.                                                                                                                                Time: 23 of 60.013 seconds.  Estimated final completion at 09:26:16.                                                                                                                                Time: 24 of 60.013 seconds.  Estimated final completion at 09:26:15.                                                                                                                                Time: 25 of 60.013 seconds.  Estimated final completion at 09:26:16.                                                                                                                                Time: 26 of 60.013 seconds.  Estimated final completion at 09:26:16.                                                                                                                                Time: 27 of 60.013 seconds.  Estimated final completion at 09:26:16.                                                                                                                                Time: 28 of 60.013 seconds.  Estimated final completion at 09:26:16.                                                                                                                                Time: 29 of 60.013 seconds.  Estimated final completion at 09:26:15.                                                                                                                                Time: 30 of 60.013 seconds.  Estimated final completion at 09:26:16.                                                                                                                                Time: 31 of 60.013 seconds.  Estimated final completion at 09:26:16.                                                                                                                                Time: 32 of 60.013 seconds.  Estimated final completion at 09:26:16.                                                                                                                                Time: 33 of 60.013 seconds.  Estimated final completion at 09:26:16.                                                                                                                                Time: 34 of 60.013 seconds.  Estimated final completion at 09:26:16.                                                                                                                                Time: 35 of 60.013 seconds.  Estimated final completion at 09:26:16.                                                                                                                                Time: 36 of 60.013 seconds.  Estimated final completion at 09:26:17.                                                                                                                                Time: 37 of 60.013 seconds.  Estimated final completion at 09:26:16.                                                                                                                                Time: 38 of 60.013 seconds.  Estimated final completion at 09:26:16.                                                                                                                                Time: 39 of 60.013 seconds.  Estimated final completion at 09:26:18.                                                                                                                                Time: 40 of 60.013 seconds.  Estimated final completion at 09:26:16.                                                                                                                                Time: 41 of 60.013 seconds.  Estimated final completion at 09:26:16.                                                                                                                                Time: 42 of 60.013 seconds.  Estimated final completion at 09:26:16.                                                                                                                                Time: 43 of 60.013 seconds.  Estimated final completion at 09:26:16.                                                                                                                                Time: 44 of 60.013 seconds.  Estimated final completion at 09:26:16.                                                                                                                                Time: 45 of 60.013 seconds.  Estimated final completion at 09:26:16.                                                                                                                                Time: 46 of 60.013 seconds.  Estimated final completion at 09:26:16.                                                                                                                                Time: 47 of 60.013 seconds.  Estimated final completion at 09:26:16.                                                                                                                                Time: 48 of 60.013 seconds.  Estimated final completion at 09:26:16.                                                                                                                                Time: 49 of 60.013 seconds.  Estimated final completion at 09:26:16.                                                                                                                                Time: 50 of 60.013 seconds.  Estimated final completion at 09:26:16.                                                                                                                                Time: 51 of 60.013 seconds.  Estimated final completion at 09:26:16.                                                                                                                                Time: 52 of 60.013 seconds.  Estimated final completion at 09:26:16.                                                                                                                                Time: 53 of 60.013 seconds.  Estimated final completion at 09:26:16.                                                                                                                                Time: 54 of 60.013 seconds.  Estimated final completion at 09:26:16.                                                                                                                                Time: 55 of 60.013 seconds.  Estimated final completion at 09:26:16.                                                                                                                                Time: 56 of 60.013 seconds.  Estimated final completion at 09:26:16.                                                                                                                                Time: 57 of 60.013 seconds.  Estimated final completion at 09:26:16.                                                                                                                                Time: 58 of 60.013 seconds.  Estimated final completion at 09:26:16.                                                                                                                                Time: 59 of 60.013 seconds.  Estimated final completion at 09:26:16.                                                                                                                                Time: 60 of 60.013 seconds.  Estimated final completion at 09:26:16.                                                                                                                               
  Total Real Time:       44.925 seconds
  Total CPU Time:        43.586 seconds
  Simulation CPU Time:   16.563 seconds
  Simulated Time:        60 seconds
  Time Ratio (Sim/CPU):  3.6224

  HydroDyn Driver terminated normally.

