
 **************************************************************************************************
 OpenFAST

 Copyright (C) 2024 National Renewable Energy Laboratory
 Copyright (C) 2024 Envision Energy USA LTD

 This program is licensed under Apache License Version 2.0 and comes with ABSOLUTELY NO WARRANTY.
 See the "LICENSE" file distributed with this software for details.
 **************************************************************************************************

 OpenFAST--128-NOTFOUND
 Compile Info:
  - Compiler: GCC version 12.3.0
  - Architecture: 64 bit
  - Precision: double
  - OpenMP: Yes, number of threads: 4/4
  - Date: May  2 2024
  - Time: 21:38:56
 Execution Info:
  - Date: 05/02/2024
  - Time: 21:57:26+0000

 OpenFAST input file heading:
     FAST Certification Test #08: AOC 15/50 with many DOFs with fixed yaw error and steady wind.
     Many parameters are pure fiction.

  Running ElastoDyn.
  Running InflowWind.
  Running AeroDyn.
  Running ServoDyn.
  Time: 0 of 20 seconds.

 FAST_Solution:FAST_UpdateStates:CalcOutputs_And_SolveForInputs:SolveOption2:AD_CalcOutput:RotCalcO
 utput:BEMT_CalcOutput(node 1, blade 1):UA_CalcOutput:UA_BlendSteady:Temporarily turning off UA
 due to high angle of attack or low relative velocity. This warning will not be repeated though
 the condition may persist.

                                                                                                   Time: 5 of 20 seconds.  Estimated final completion at 21:57:34.                                                                                                                                     Time: 10 of 20 seconds.  Estimated final completion at 21:57:34.                                                                                                                                    Time: 15 of 20 seconds.  Estimated final completion at 21:57:34.                                                                                                                                    Time: 20 of 20 seconds.  Estimated final completion at 21:57:34.                                                                                                                                   
  Total Real Time:       7.921 seconds
  Total CPU Time:        7.9789 seconds
  Simulation CPU Time:   7.7907 seconds
  Simulated Time:        20 seconds
  Time Ratio (Sim/CPU):  2.5672

  OpenFAST terminated normally.

