
 **************************************************************************************************
 OpenFAST

 Copyright (C) 2022 National Renewable Energy Laboratory
 Copyright (C) 2022 Envision Energy USA LTD

 This program is licensed under Apache License Version 2.0 and comes with ABSOLUTELY NO WARRANTY.
 See the "LICENSE" file distributed with this software for details.
 **************************************************************************************************

 OpenFAST-v3.3.0-294-g5aab8a2a
 Compile Info:
  - Compiler: GCC version 10.4.0
  - Architecture: 64 bit
  - Precision: double
  - OpenMP: No
  - Date: Dec 23 2022
  - Time: 13:50:47
 Execution Info:
  - Date: 12/23/2022
  - Time: 14:46:04-0700

 OpenFAST input file heading:
     Based on FAST Certification Test #18: NREL 5.0 MW Baseline Wind Turbine (Onshore) with
     AeroDisk

 Running SED (v1.00.00, 15-Feb-2022).
 Running AeroDisk.
 Running InflowWind.

    Reading a 31x31 grid (145 m wide, 17.5 m to 162.5 m above ground) with a characteristic wind
    speed of 12 m/s. This full-field file was generated by TurbSim (from
    OpenFAST-v3.0.0-98-g7bde6b54) on 14-Sep-2021 at 11:49:55.

    Processed 1442 time steps of 20-Hz full-field data (72.05 seconds).
 Running ServoDyn.
 Running ServoDyn Interface for Bladed Controllers (using GNU Fortran for Linux).
 Using legacy Bladed DLL interface.
  Time: 0 of 60 seconds.
                                                                                                   Time: 5 of 60 seconds.  Estimated final completion at 14:46:08.                                                                                                                                     Time: 10 of 60 seconds.  Estimated final completion at 14:46:08.                                                                                                                                    Time: 15 of 60 seconds.  Estimated final completion at 14:46:08.                                                                                                                                    Time: 20 of 60 seconds.  Estimated final completion at 14:46:08.                                                                                                                                    Time: 25 of 60 seconds.  Estimated final completion at 14:46:08.                                                                                                                                    Time: 30 of 60 seconds.  Estimated final completion at 14:46:08.                                                                                                                                    Time: 35 of 60 seconds.  Estimated final completion at 14:46:08.                                                                                                                                    Time: 40 of 60 seconds.  Estimated final completion at 14:46:08.                                                                                                                                    Time: 45 of 60 seconds.  Estimated final completion at 14:46:08.                                                                                                                                    Time: 50 of 60 seconds.  Estimated final completion at 14:46:08.                                                                                                                                    Time: 55 of 60 seconds.  Estimated final completion at 14:46:08.                                                                                                                                    Time: 60 of 60 seconds.  Estimated final completion at 14:46:08.                                                                                                                                   
  Total Real Time:       2.923 seconds
  Total CPU Time:        2.9041 seconds
  Simulation CPU Time:   2.3523 seconds
  Simulated Time:        60 seconds
  Time Ratio (Sim/CPU):  25.507

  OpenFAST terminated normally.

