
 **************************************************************************************************
 OpenFAST

 Copyright (C) 2022 National Renewable Energy Laboratory
 Copyright (C) 2022 Envision Energy USA LTD

 This program is licensed under Apache License Version 2.0 and comes with ABSOLUTELY NO WARRANTY.
 See the "LICENSE" file distributed with this software for details.
 **************************************************************************************************

 OpenFAST-v3.1.0-243-ge6028eae-dirty
 Compile Info:
  - Compiler: Intel(R) Fortran Intel(R) 64 Compiler Classic for applications running on Intel(R)
  64, Version 2021.1 Build 20201112_000000
  - Architecture: 64 bit
  - Precision: double
  - OpenMP: No
  - Date: Jul 06 2022
  - Time: 19:28:39
 Execution Info:
  - Date: 07/06/2022
  - Time: 22:21:32-0500

 OpenFAST input file heading:
     FAST Certification Test #07: AOC 15/50 with many DOFs with free yaw and FF turbulence. Many
     parameters are pure fiction.

 Running ElastoDyn.
 Nodal outputs section of ElastoDyn input file not found or improperly formatted.
 Running AeroDyn.
 AD15 Nodal Outputs: Nodal output section of AeroDyn input file not found or improperly formatted.
 Skipping nodal outputs.
 Running InflowWind.

    Reading a 6x6 grid (18 m wide, 16 m to 34 m above ground) with a characteristic wind speed of
    12 m/s.

    Processed 1430 time steps of 20-Hz full-field data (71.45 seconds).
 Running ServoDyn.
  Time: 0 of 70 seconds.

 FAST_Solution:CalcOutputs_And_SolveForInputs:SolveOption2:RotCalcOutput:BEMT_CalcOutput(node 1,
 blade 1):UA_CalcOutput:UA_BlendSteady:Temporarily turning off UA due to high angle of attack or
 low relative velocity. This warning will not be repeated though the condition may persist.

+                                                                                                  
+ Time: 5 of 70 seconds.  Estimated final completion at 22:23:06.
+                                                                                                  
+ Time: 10 of 70 seconds.  Estimated final completion at 22:23:09.
+                                                                                                  
+ Time: 15 of 70 seconds.  Estimated final completion at 22:23:10.
+                                                                                                  
+ Time: 20 of 70 seconds.  Estimated final completion at 22:23:08.
+                                                                                                  
+ Time: 25 of 70 seconds.  Estimated final completion at 22:23:07.
+                                                                                                  
+ Time: 30 of 70 seconds.  Estimated final completion at 22:23:07.
+                                                                                                  
+ Time: 35 of 70 seconds.  Estimated final completion at 22:23:08.
+                                                                                                  
+ Time: 40 of 70 seconds.  Estimated final completion at 22:23:08.
+                                                                                                  
+ Time: 45 of 70 seconds.  Estimated final completion at 22:23:08.
+                                                                                                  
+ Time: 50 of 70 seconds.  Estimated final completion at 22:23:08.
+                                                                                                  
+ Time: 55 of 70 seconds.  Estimated final completion at 22:23:07.
+                                                                                                  
+ Time: 60 of 70 seconds.  Estimated final completion at 22:23:08.
+                                                                                                  
+ Time: 65 of 70 seconds.  Estimated final completion at 22:23:08.
+                                                                                                  
+ Time: 70 of 70 seconds.  Estimated final completion at 22:23:08.
+                                                                                                  

  Total Real Time:       1.5986 minutes
  Total CPU Time:        1.5961 minutes
  Simulation CPU Time:   1.5948 minutes
  Simulated Time:        1.1667 minutes
  Time Ratio (Sim/CPU):  0.73154

  OpenFAST terminated normally.

