
 **************************************************************************************************
 OpenFAST

 Copyright (C) 2025 National Renewable Energy Laboratory
 Copyright (C) 2025 Envision Energy USA LTD

 This program is licensed under Apache License Version 2.0 and comes with ABSOLUTELY NO WARRANTY.
 See the "LICENSE" file distributed with this software for details.
 **************************************************************************************************

 OpenFAST-v3.5.3-2303-g72198537-dirty
 Compile Info:
  - Compiler: Intel(R) Fortran Compiler for applications running on Intel(R) 64, Version 2024.1.0
  Build 20240308
  - Architecture: 64 bit
  - Precision: double
  - OpenMP: No
  - Date: Feb 19 2025
  - Time: 12:19:50
 Execution Info:
  - Date: 02/19/2025
  - Time: 12:58:50-0700

 OpenFAST input file heading:
     FAST Certification Test #25: NREL 5.0 MW Baseline Wind Turbine with OC4-DeepCwind semi
     configuration, for use in offshore analysis

  Running ElastoDyn.
  Running SeaState.
   Setting WaveTMax to TMax since WaveMod = 0
  Running HydroDyn.
  Reading in WAMIT output with root name
  "/home/lwang3/Desktop/OpenFAST/openfast/build/reg_tests/glue-codes/openfast/StC_test_OC4Semi/../5
  MW_Baseline/HydroData/marin_semi".
  Computing radiation impulse response functions and wave diffraction forces.
  Running MoorDyn (v2.2.2, 2024-01-16).
    This is MoorDyn v2, with significant input file changes from v1.

 **************************************************************************************************
 MoorDyn

 Copyright (C) 2025 National Renewable Energy Laboratory
 Copyright (C) 2025 Envision Energy USA LTD

 This program is licensed under Apache License Version 2.0 and comes with ABSOLUTELY NO WARRANTY.
 See the "LICENSE" file distributed with this software for details.
 **************************************************************************************************

    Parsing MoorDyn input file:
    /home/lwang3/Desktop/OpenFAST/openfast/build/reg_tests/glue-codes/openfast/StC_test_OC4Semi/NRE
    LOffshrBsline5MW_OC4DeepCwindSemi_MoorDyn.dat
    Created mooring system:  3 lines, 6 points, 0 rods, 0 bodies.
    Catenary solve of Line 1 unsuccessful. Initializing as linear.
    Catenary solve of Line 2 unsuccessful. Initializing as linear.
    Catenary solve of Line 3 unsuccessful. Initializing as linear.
    Finalizing initial conditions using dynamic relaxation.

+   t=0.2  FairTen 1: 43986, 1, 2                                                                  
+   t=0.4  FairTen 1: 56920, 43986, 1                                                              
+   t=0.6  FairTen 1: 64128, 56920, 43986                                                          
+   t=0.8  FairTen 1: 68032, 64128, 56920                                                          
+   t=1  FairTen 1: 70315, 68032, 64128                                                            
+   t=1.2  FairTen 1: 71848, 70315, 68032                                                          
+   t=1.4  FairTen 1: 73040, 71848, 70315                                                          
+   t=1.6  FairTen 1: 74074, 73040, 71848                                                          
+   t=1.8  FairTen 1: 75028, 74074, 73040                                                          
+   t=2  FairTen 1: 75939, 75028, 74074                                                            
+   t=2.2  FairTen 1: 76823, 75939, 75028                                                          
+   t=2.4  FairTen 1: 77685, 76823, 75939                                                          
+   t=2.6  FairTen 1: 78529, 77685, 76823                                                          
+   t=2.8  FairTen 1: 79357, 78529, 77685                                                          
+   t=3  FairTen 1: 80169, 79357, 78529                                                            
+   t=3.2  FairTen 1: 80965, 80169, 79357                                                          
+   t=3.4  FairTen 1: 81747, 80965, 80169                                                          
+   t=3.6  FairTen 1: 82514, 81747, 80965                                                          
+   t=3.8  FairTen 1: 83267, 82514, 81747                                                          
+   t=4  FairTen 1: 84006, 83267, 82514                                                            
+   t=4.2  FairTen 1: 84731, 84006, 83267                                                          
+   t=4.4  FairTen 1: 85443, 84731, 84006                                                          
+   t=4.6  FairTen 1: 86141, 85443, 84731                                                          
+   t=4.8  FairTen 1: 1.03055E+05, 86141, 85443                                                    
+   t=5  FairTen 1: 98063, 1.03055E+05, 86141                                                      
+   t=5.2  FairTen 1: 96959, 98063, 1.03055E+05                                                    
+   t=5.4  FairTen 1: 96712, 96959, 98063                                                          
+   t=5.6  FairTen 1: 1.15290E+05, 96712, 96959                                                    
+   t=5.8  FairTen 1: 1.06386E+05, 1.15290E+05, 96712                                              
+   t=6  FairTen 1: 1.05745E+05, 1.06386E+05, 1.15290E+05                                          
+   t=6.2  FairTen 1: 1.05910E+05, 1.05745E+05, 1.06386E+05                                        
+   t=6.4  FairTen 1: 1.23397E+05, 1.05910E+05, 1.05745E+05                                        
+   t=6.6  FairTen 1: 1.15979E+05, 1.23397E+05, 1.05910E+05                                        
+   t=6.8  FairTen 1: 1.15381E+05, 1.15979E+05, 1.23397E+05                                        
+   t=7  FairTen 1: 1.68792E+05, 1.15381E+05, 1.15979E+05                                          
+   t=7.2  FairTen 1: 1.64308E+05, 1.68792E+05, 1.15381E+05                                        
+   t=7.4  FairTen 1: 1.40563E+05, 1.64308E+05, 1.68792E+05                                        
+   t=7.6  FairTen 1: 1.43860E+05, 1.40563E+05, 1.64308E+05                                        
+   t=7.8  FairTen 1: 1.42951E+05, 1.43860E+05, 1.40563E+05                                        
+   t=8  FairTen 1: 1.77415E+05, 1.42951E+05, 1.43860E+05                                          
+   t=8.2  FairTen 1: 1.48083E+05, 1.77415E+05, 1.42951E+05                                        
+   t=8.4  FairTen 1: 1.54854E+05, 1.48083E+05, 1.77415E+05                                        
+   t=8.6  FairTen 1: 1.54181E+05, 1.54854E+05, 1.48083E+05                                        
+   t=8.8  FairTen 1: 1.86895E+05, 1.54181E+05, 1.54854E+05                                        
+   t=9  FairTen 1: 1.60876E+05, 1.86895E+05, 1.54181E+05                                          
+   t=9.2  FairTen 1: 1.64101E+05, 1.60876E+05, 1.86895E+05                                        
+   t=9.4  FairTen 1: 1.66611E+05, 1.64101E+05, 1.60876E+05                                        
+   t=9.6  FairTen 1: 1.86641E+05, 1.66611E+05, 1.64101E+05                                        
+   t=9.8  FairTen 1: 1.78502E+05, 1.86641E+05, 1.66611E+05                                        
+   t=10  FairTen 1: 1.71210E+05, 1.78502E+05, 1.86641E+05                                         
+   t=10.2  FairTen 1: 1.76909E+05, 1.71210E+05, 1.78502E+05                                       
+   t=10.4  FairTen 1: 1.71630E+05, 1.76909E+05, 1.71210E+05                                       
+   t=10.6  FairTen 1: 1.97920E+05, 1.71630E+05, 1.76909E+05                                       
+   t=10.8  FairTen 1: 1.79377E+05, 1.97920E+05, 1.71630E+05                                       
+   t=11  FairTen 1: 1.77206E+05, 1.79377E+05, 1.97920E+05                                         
+   t=11.2  FairTen 1: 1.82921E+05, 1.77206E+05, 1.79377E+05                                       
+   t=11.4  FairTen 1: 1.82049E+05, 1.82921E+05, 1.77206E+05                                       
+   t=11.6  FairTen 1: 1.82744E+05, 1.82049E+05, 1.82921E+05                                       
+   t=11.8  FairTen 1: 2.02521E+05, 1.82744E+05, 1.82049E+05                                       
+   t=12  FairTen 1: 1.88560E+05, 2.02521E+05, 1.82744E+05                                         
+   t=12.2  FairTen 1: 1.89754E+05, 1.88560E+05, 2.02521E+05                                       
+   t=12.4  FairTen 1: 1.94984E+05, 1.89754E+05, 1.88560E+05                                       
+   t=12.6  FairTen 1: 1.94352E+05, 1.94984E+05, 1.89754E+05                                       
+   t=12.8  FairTen 1: 1.94511E+05, 1.94352E+05, 1.94984E+05                                       
+   t=13  FairTen 1: 2.15719E+05, 1.94511E+05, 1.94352E+05                                         
+   t=13.2  FairTen 1: 2.07150E+05, 2.15719E+05, 1.94511E+05                                       
+   t=13.4  FairTen 1: 1.99841E+05, 2.07150E+05, 2.15719E+05                                       
+   t=13.6  FairTen 1: 2.05135E+05, 1.99841E+05, 2.07150E+05                                       
+   t=13.8  FairTen 1: 2.08726E+05, 2.05135E+05, 1.99841E+05                                       
+   t=14  FairTen 1: 2.07876E+05, 2.08726E+05, 2.05135E+05                                         
+   t=14.2  FairTen 1: 2.08379E+05, 2.07876E+05, 2.08726E+05                                       
+   t=14.4  FairTen 1: 2.11254E+05, 2.08379E+05, 2.07876E+05                                       
+   t=14.6  FairTen 1: 2.29518E+05, 2.11254E+05, 2.08379E+05                                       
+   t=14.8  FairTen 1: 2.17436E+05, 2.29518E+05, 2.11254E+05                                       
+   t=15  FairTen 1: 2.15608E+05, 2.17436E+05, 2.29518E+05                                         
+   t=15.2  FairTen 1: 2.18714E+05, 2.15608E+05, 2.17436E+05                                       
+   t=15.4  FairTen 1: 2.08182E+05, 2.18714E+05, 2.15608E+05                                       
+   t=15.6  FairTen 1: 2.09744E+05, 2.08182E+05, 2.18714E+05                                       
+   t=15.8  FairTen 1: 2.13734E+05, 2.09744E+05, 2.08182E+05                                       
+   t=16  FairTen 1: 2.13920E+05, 2.13734E+05, 2.09744E+05                                         
+   t=16.2  FairTen 1: 2.13561E+05, 2.13920E+05, 2.13734E+05                                       
+   t=16.4  FairTen 1: 2.17488E+05, 2.13561E+05, 2.13920E+05                                       
+   t=16.6  FairTen 1: 2.28800E+05, 2.17488E+05, 2.13561E+05                                       
+   t=16.8  FairTen 1: 2.21892E+05, 2.28800E+05, 2.17488E+05                                       
+   t=17  FairTen 1: 2.20564E+05, 2.21892E+05, 2.28800E+05                                         
+   t=17.2  FairTen 1: 2.24955E+05, 2.20564E+05, 2.21892E+05                                       
+   t=17.4  FairTen 1: 2.26757E+05, 2.24955E+05, 2.20564E+05                                       
+   t=17.6  FairTen 1: 2.26606E+05, 2.26757E+05, 2.24955E+05                                       
+   t=17.8  FairTen 1: 2.27249E+05, 2.26606E+05, 2.26757E+05                                       
+   t=18  FairTen 1: 2.28701E+05, 2.27249E+05, 2.26606E+05                                         
+   t=18.2  FairTen 1: 2.29872E+05, 2.28701E+05, 2.27249E+05                                       
+   t=18.4  FairTen 1: 2.30695E+05, 2.29872E+05, 2.28701E+05                                       
+   t=18.6  FairTen 1: 2.31605E+05, 2.30695E+05, 2.29872E+05                                       
+   t=18.8  FairTen 1: 2.32643E+05, 2.31605E+05, 2.30695E+05                                       
+   t=19  FairTen 1: 2.37982E+05, 2.32643E+05, 2.31605E+05                                         
+   t=19.2  FairTen 1: 2.47592E+05, 2.37982E+05, 2.32643E+05                                       
+   t=19.4  FairTen 1: 2.41471E+05, 2.47592E+05, 2.37982E+05                                       
+   t=19.6  FairTen 1: 2.40191E+05, 2.41471E+05, 2.47592E+05                                       
+   t=19.8  FairTen 1: 2.44651E+05, 2.40191E+05, 2.41471E+05                                       
+   t=20  FairTen 1: 2.46792E+05, 2.44651E+05, 2.40191E+05                                         
+   t=20.2  FairTen 1: 2.46881E+05, 2.46792E+05, 2.44651E+05                                       
+   t=20.4  FairTen 1: 2.47140E+05, 2.46881E+05, 2.46792E+05                                       
+   t=20.6  FairTen 1: 2.23774E+05, 2.47140E+05, 2.46881E+05                                       
+   t=20.8  FairTen 1: 2.32928E+05, 2.23774E+05, 2.47140E+05                                       
+   t=21  FairTen 1: 2.39394E+05, 2.32928E+05, 2.23774E+05                                         
+   t=21.2  FairTen 1: 2.39794E+05, 2.39394E+05, 2.32928E+05                                       
+   t=21.4  FairTen 1: 2.37829E+05, 2.39794E+05, 2.39394E+05                                       
+   t=21.6  FairTen 1: 2.38487E+05, 2.37829E+05, 2.39794E+05                                       
+   t=21.8  FairTen 1: 2.40418E+05, 2.38487E+05, 2.37829E+05                                       
+   t=22  FairTen 1: 2.41445E+05, 2.40418E+05, 2.38487E+05                                         
+   t=22.2  FairTen 1: 2.41927E+05, 2.41445E+05, 2.40418E+05                                       
+   t=22.4  FairTen 1: 2.42691E+05, 2.41927E+05, 2.41445E+05                                       
+   t=22.6  FairTen 1: 2.45972E+05, 2.42691E+05, 2.41927E+05                                       
+   t=22.8  FairTen 1: 2.56410E+05, 2.45972E+05, 2.42691E+05                                       
+   t=23  FairTen 1: 2.52128E+05, 2.56410E+05, 2.45972E+05                                         
+   t=23.2  FairTen 1: 2.51063E+05, 2.52128E+05, 2.56410E+05                                       
+   t=23.4  FairTen 1: 2.53684E+05, 2.51063E+05, 2.52128E+05                                       
+   t=23.6  FairTen 1: 2.55876E+05, 2.53684E+05, 2.51063E+05                                       
+   t=23.8  FairTen 1: 2.56748E+05, 2.55876E+05, 2.53684E+05                                       
+   t=24  FairTen 1: 2.57327E+05, 2.56748E+05, 2.55876E+05                                         
+   t=24.2  FairTen 1: 2.58511E+05, 2.57327E+05, 2.56748E+05                                       
+   t=24.4  FairTen 1: 2.59849E+05, 2.58511E+05, 2.57327E+05                                       
+   t=24.6  FairTen 1: 2.60974E+05, 2.59849E+05, 2.58511E+05                                       
+   t=24.8  FairTen 1: 2.61964E+05, 2.60974E+05, 2.59849E+05                                       
+   t=25  FairTen 1: 2.62995E+05, 2.61964E+05, 2.60974E+05                                         
+   t=25.2  FairTen 1: 2.64064E+05, 2.62995E+05, 2.61964E+05                                       
+   t=25.4  FairTen 1: 2.65099E+05, 2.64064E+05, 2.62995E+05                                       
+   t=25.6  FairTen 1: 2.66091E+05, 2.65099E+05, 2.64064E+05                                       
+   t=25.8  FairTen 1: 2.67069E+05, 2.66091E+05, 2.65099E+05                                       
+   t=26  FairTen 1: 2.67996E+05, 2.67069E+05, 2.66091E+05                                         
+   t=26.2  FairTen 1: 2.30049E+05, 2.67996E+05, 2.67069E+05                                       
+   t=26.4  FairTen 1: 2.50083E+05, 2.30049E+05, 2.67996E+05                                       
+   t=26.6  FairTen 1: 2.56583E+05, 2.50083E+05, 2.30049E+05                                       
+   t=26.8  FairTen 1: 2.57898E+05, 2.56583E+05, 2.50083E+05                                       
+   t=27  FairTen 1: 2.54634E+05, 2.57898E+05, 2.56583E+05                                         
+   t=27.2  FairTen 1: 2.67800E+05, 2.54634E+05, 2.57898E+05                                       
+   t=27.4  FairTen 1: 2.65657E+05, 2.67800E+05, 2.54634E+05                                       
+   t=27.6  FairTen 1: 2.65524E+05, 2.65657E+05, 2.67800E+05                                       
+   t=27.8  FairTen 1: 2.65091E+05, 2.65524E+05, 2.65657E+05                                       
+   t=28  FairTen 1: 2.67314E+05, 2.65091E+05, 2.65524E+05                                         
+   t=28.2  FairTen 1: 2.68889E+05, 2.67314E+05, 2.65091E+05                                       
+   t=28.4  FairTen 1: 2.69953E+05, 2.68889E+05, 2.67314E+05                                       
+   t=28.6  FairTen 1: 2.70890E+05, 2.69953E+05, 2.68889E+05                                       
+   t=28.8  FairTen 1: 2.72112E+05, 2.70890E+05, 2.69953E+05                                       
+   t=29  FairTen 1: 2.73417E+05, 2.72112E+05, 2.70890E+05                                         
+   t=29.2  FairTen 1: 2.74650E+05, 2.73417E+05, 2.72112E+05                                       
+   t=29.4  FairTen 1: 2.75825E+05, 2.74650E+05, 2.73417E+05                                       
+   t=29.6  FairTen 1: 2.77004E+05, 2.75825E+05, 2.74650E+05                                       
+   t=29.8  FairTen 1: 2.78194E+05, 2.77004E+05, 2.75825E+05                                       
+   t=30  FairTen 1: 2.79368E+05, 2.78194E+05, 2.77004E+05                                         
+   t=30.2  FairTen 1: 2.80518E+05, 2.79368E+05, 2.78194E+05                                       
+   t=30.4  FairTen 1: 2.81659E+05, 2.80518E+05, 2.79368E+05                                       
+   t=30.6  FairTen 1: 3.01373E+05, 2.81659E+05, 2.80518E+05                                       
+   t=30.8  FairTen 1: 2.97564E+05, 3.01373E+05, 2.81659E+05                                       
+   t=31  FairTen 1: 2.95749E+05, 2.97564E+05, 3.01373E+05                                         
+   t=31.2  FairTen 1: 2.94891E+05, 2.95749E+05, 2.97564E+05                                       
+   t=31.4  FairTen 1: 2.97992E+05, 2.94891E+05, 2.95749E+05                                       
+   t=31.6  FairTen 1: 3.00106E+05, 2.97992E+05, 2.94891E+05                                       
+   t=31.8  FairTen 1: 3.01359E+05, 3.00106E+05, 2.97992E+05                                       
+   t=32  FairTen 1: 2.97844E+05, 3.01359E+05, 3.00106E+05                                         
+   t=32.2  FairTen 1: 2.57658E+05, 2.97844E+05, 3.01359E+05                                       
+   t=32.4  FairTen 1: 2.96579E+05, 2.57658E+05, 2.97844E+05                                       
+   t=32.6  FairTen 1: 3.08518E+05, 2.96579E+05, 2.57658E+05                                       
+   t=32.8  FairTen 1: 3.07872E+05, 3.08518E+05, 2.96579E+05                                       
+   t=33  FairTen 1: 3.03751E+05, 3.07872E+05, 3.08518E+05                                         
+   t=33.2  FairTen 1: 3.04639E+05, 3.03751E+05, 3.07872E+05                                       
+   t=33.4  FairTen 1: 3.11427E+05, 3.04639E+05, 3.03751E+05                                       
+   t=33.6  FairTen 1: 3.58943E+05, 3.11427E+05, 3.04639E+05                                       
+   t=33.8  FairTen 1: 4.43578E+05, 3.58943E+05, 3.11427E+05                                       
+   t=34  FairTen 1: 5.07733E+05, 4.43578E+05, 3.58943E+05                                         
+   t=34.2  FairTen 1: 4.89023E+05, 5.07733E+05, 4.43578E+05                                       
+   t=34.4  FairTen 1: 5.03096E+05, 4.89023E+05, 5.07733E+05                                       
+   t=34.6  FairTen 1: 5.10275E+05, 5.03096E+05, 4.89023E+05                                       
+   t=34.8  FairTen 1: 4.86783E+05, 5.10275E+05, 5.03096E+05                                       
+   t=35  FairTen 1: 4.96016E+05, 4.86783E+05, 5.10275E+05                                         
+   t=35.2  FairTen 1: 5.09248E+05, 4.96016E+05, 4.86783E+05                                       
+   t=35.4  FairTen 1: 5.09990E+05, 5.09248E+05, 4.96016E+05                                       
+   t=35.6  FairTen 1: 5.23545E+05, 5.09990E+05, 5.09248E+05                                       
+   t=35.8  FairTen 1: 5.38319E+05, 5.23545E+05, 5.09990E+05                                       
+   t=36  FairTen 1: 5.44951E+05, 5.38319E+05, 5.23545E+05                                         
+   t=36.2  FairTen 1: 5.55443E+05, 5.44951E+05, 5.38319E+05                                       
+   t=36.4  FairTen 1: 5.67046E+05, 5.55443E+05, 5.44951E+05                                       
+   t=36.6  FairTen 1: 5.74838E+05, 5.67046E+05, 5.55443E+05                                       
+   t=36.8  FairTen 1: 5.84682E+05, 5.74838E+05, 5.67046E+05                                       
+   t=37  FairTen 1: 5.96364E+05, 5.84682E+05, 5.74838E+05                                         
+   t=37.2  FairTen 1: 6.06786E+05, 5.96364E+05, 5.84682E+05                                       
+   t=37.4  FairTen 1: 6.18144E+05, 6.06786E+05, 5.96364E+05                                       
+   t=37.6  FairTen 1: 6.30571E+05, 6.18144E+05, 6.06786E+05                                       
+   t=37.8  FairTen 1: 6.42180E+05, 6.30571E+05, 6.18144E+05                                       
+   t=38  FairTen 1: 6.53788E+05, 6.42180E+05, 6.30571E+05                                         
+   t=38.2  FairTen 1: 6.65815E+05, 6.53788E+05, 6.42180E+05                                       
+   t=38.4  FairTen 1: 6.77386E+05, 6.65815E+05, 6.53788E+05                                       
+   t=38.6  FairTen 1: 6.88868E+05, 6.77386E+05, 6.65815E+05                                       
+   t=38.8  FairTen 1: 7.00696E+05, 6.88868E+05, 6.77386E+05                                       
+   t=39  FairTen 1: 7.12464E+05, 7.00696E+05, 6.88868E+05                                         
+   t=39.2  FairTen 1: 7.24234E+05, 7.12464E+05, 7.00696E+05                                       
+   t=39.4  FairTen 1: 7.36261E+05, 7.24234E+05, 7.12464E+05                                       
+   t=39.6  FairTen 1: 7.48363E+05, 7.36261E+05, 7.24234E+05                                       
+   t=39.8  FairTen 1: 7.60514E+05, 7.48363E+05, 7.36261E+05                                       
+   t=40  FairTen 1: 7.72875E+05, 7.60514E+05, 7.48363E+05                                         
+   t=40.2  FairTen 1: 7.85376E+05, 7.72875E+05, 7.60514E+05                                       
+   t=40.4  FairTen 1: 7.97947E+05, 7.85376E+05, 7.72875E+05                                       
+   t=40.6  FairTen 1: 8.10633E+05, 7.97947E+05, 7.85376E+05                                       
+   t=40.8  FairTen 1: 8.23379E+05, 8.10633E+05, 7.97947E+05                                       
+   t=41  FairTen 1: 8.36109E+05, 8.23379E+05, 8.10633E+05                                         
+   t=41.2  FairTen 1: 8.48833E+05, 8.36109E+05, 8.23379E+05                                       
+   t=41.4  FairTen 1: 8.61537E+05, 8.48833E+05, 8.36109E+05                                       
+   t=41.6  FairTen 1: 8.74181E+05, 8.61537E+05, 8.48833E+05                                       
+   t=41.8  FairTen 1: 8.86761E+05, 8.74181E+05, 8.61537E+05                                       
+   t=42  FairTen 1: 8.99263E+05, 8.86761E+05, 8.74181E+05                                         
+   t=42.2  FairTen 1: 9.11634E+05, 8.99263E+05, 8.86761E+05                                       
+   t=42.4  FairTen 1: 9.23836E+05, 9.11634E+05, 8.99263E+05                                       
+   t=42.6  FairTen 1: 9.35828E+05, 9.23836E+05, 9.11634E+05                                       
+   t=42.8  FairTen 1: 9.47553E+05, 9.35828E+05, 9.23836E+05                                       
+   t=43  FairTen 1: 9.58963E+05, 9.47553E+05, 9.35828E+05                                         
+   t=43.2  FairTen 1: 9.70025E+05, 9.58963E+05, 9.47553E+05                                       
+   t=43.4  FairTen 1: 9.80700E+05, 9.70025E+05, 9.58963E+05                                       
+   t=43.6  FairTen 1: 9.90948E+05, 9.80700E+05, 9.70025E+05                                       
+   t=43.8  FairTen 1: 1.00073E+06, 9.90948E+05, 9.80700E+05                                       
+   t=44  FairTen 1: 1.01001E+06, 1.00073E+06, 9.90948E+05                                         
+   t=44.2  FairTen 1: 1.01872E+06, 1.01001E+06, 1.00073E+06                                       
+   t=44.4  FairTen 1: 1.02680E+06, 1.01872E+06, 1.01001E+06                                       
+   t=44.6  FairTen 1: 1.03422E+06, 1.02680E+06, 1.01872E+06                                       
+   t=44.8  FairTen 1: 1.04091E+06, 1.03422E+06, 1.02680E+06                                       
+   t=45  FairTen 1: 1.04684E+06, 1.04091E+06, 1.03422E+06                                         
+   t=45.2  FairTen 1: 1.05198E+06, 1.04684E+06, 1.04091E+06                                       
+   t=45.4  FairTen 1: 1.05631E+06, 1.05198E+06, 1.04684E+06                                       
+   t=45.6  FairTen 1: 1.05984E+06, 1.05631E+06, 1.05198E+06                                       
+   t=45.8  FairTen 1: 1.06258E+06, 1.05984E+06, 1.05631E+06                                       
+   t=46  FairTen 1: 1.06455E+06, 1.06258E+06, 1.05984E+06                                         
+   t=46.2  FairTen 1: 1.06579E+06, 1.06455E+06, 1.06258E+06                                       
+   t=46.4  FairTen 1: 1.06638E+06, 1.06579E+06, 1.06455E+06                                       
+   t=46.6  FairTen 1: 1.06638E+06, 1.06638E+06, 1.06579E+06                                       
+   t=46.8  FairTen 1: 1.06589E+06, 1.06638E+06, 1.06638E+06                                       
+   t=47  FairTen 1: 1.06501E+06, 1.06589E+06, 1.06638E+06                                         
+   t=47.2  FairTen 1: 1.06384E+06, 1.06501E+06, 1.06589E+06                                       
    Fairlead tensions converged to 1% after 47.2 seconds.
    Fairlead tension: 1.06384E+06
    Fairlead forces: 4.30680E+05, 7.51890E+05, -6.17199E+05
    Fairlead tension: 1.20315E+06
    Fairlead forces: -1.00321E+06, 0, -6.64184E+05
    Fairlead tension: 1.06384E+06
    Fairlead forces: 4.30680E+05, -7.51890E+05, -6.17199E+05
    MoorDyn initialization completed.
  Running ServoDyn.
  Running StrucCtrl.
  Running StrucCtrl.
  Running StrucCtrl.
  Running StrucCtrl.
  Running StrucCtrl.

 FAST_InitializeAll:ED_Init:ED_ReadInput:ReadBladeInputs:ReadBladeFile:The ElastoDyn Blade file,
 /home/lwang3/Desktop/OpenFAST/openfast/build/reg_tests/glue-codes/openfast/StC_test_OC4Semi/../5MW
 _Baseline/NRELOffshrBsline5MW_Blade.dat, DISTRIBUTED BLADE PROPERTIES table contains the
 PitchAxis column.  This column is unused and will be removed in future releases
 FAST_InitializeAll:SeaSt_Init:SeaStateInput_ProcessInitData:WvHiCOff adjusted to 3.49066E-02
 rad/s, based on WaveDT.

  Time: 0 of 90 seconds.
+                                                                                                  
+ Time: 1 of 90 seconds.  Estimated final completion at 12:59:30.
+                                                                                                  
+ Time: 2 of 90 seconds.  Estimated final completion at 12:59:16.
+                                                                                                  
+ Time: 3 of 90 seconds.  Estimated final completion at 12:59:17.

 FAST_Solution:FAST_UpdateStates:FAST_AdvanceStates:ED_ABM4:ED_CalcContStateDeriv:SetCoordSy:Small
 angle assumption violated in SUBROUTINE SmllRotTrans() due to a large blade deflection (ElastoDyn
 SetCoordSy). The solution may be inaccurate. Simulation continuing, but future warnings from
 SmllRotTrans() will be suppressed.
  Additional debugging message from SUBROUTINE SmllRotTrans(): 3.4 s
 ED_CalcContStateDeriv:SetCoordSy:Small angle assumption violated in SUBROUTINE SmllRotTrans() due
 to a large blade deflection (ElastoDyn SetCoordSy). The solution may be inaccurate. Simulation
 continuing, but future warnings from SmllRotTrans() will be suppressed.
  Additional debugging message from SUBROUTINE SmllRotTrans(): 3.4 s

+                                                                                                  
+ Time: 4 of 90 seconds.  Estimated final completion at 12:59:17.
+                                                                                                  
+ Time: 5 of 90 seconds.  Estimated final completion at 12:59:17.
+                                                                                                  
+ Time: 6 of 90 seconds.  Estimated final completion at 12:59:16.
+                                                                                                  
+ Time: 7 of 90 seconds.  Estimated final completion at 12:59:19.
+                                                                                                  
+ Time: 8 of 90 seconds.  Estimated final completion at 12:59:20.
+                                                                                                  
+ Time: 9 of 90 seconds.  Estimated final completion at 12:59:17.
+                                                                                                  
+ Time: 10 of 90 seconds.  Estimated final completion at 12:59:17.
+                                                                                                  
+ Time: 11 of 90 seconds.  Estimated final completion at 12:59:17.
+                                                                                                  
+ Time: 12 of 90 seconds.  Estimated final completion at 12:59:16.
+                                                                                                  
+ Time: 13 of 90 seconds.  Estimated final completion at 12:59:16.
+                                                                                                  
+ Time: 14 of 90 seconds.  Estimated final completion at 12:59:16.
+                                                                                                  
+ Time: 15 of 90 seconds.  Estimated final completion at 12:59:17.
+                                                                                                  
+ Time: 16 of 90 seconds.  Estimated final completion at 12:59:18.
+                                                                                                  
+ Time: 17 of 90 seconds.  Estimated final completion at 12:59:18.
+                                                                                                  
+ Time: 18 of 90 seconds.  Estimated final completion at 12:59:17.
+                                                                                                  
+ Time: 19 of 90 seconds.  Estimated final completion at 12:59:20.
+                                                                                                  
+ Time: 20 of 90 seconds.  Estimated final completion at 12:59:17.
+                                                                                                  
+ Time: 21 of 90 seconds.  Estimated final completion at 12:59:17.
+                                                                                                  
+ Time: 22 of 90 seconds.  Estimated final completion at 12:59:16.
+                                                                                                  
+ Time: 23 of 90 seconds.  Estimated final completion at 12:59:17.
+                                                                                                  
+ Time: 24 of 90 seconds.  Estimated final completion at 12:59:17.
+                                                                                                  
+ Time: 25 of 90 seconds.  Estimated final completion at 12:59:22.
+                                                                                                  
+ Time: 26 of 90 seconds.  Estimated final completion at 12:59:22.
+                                                                                                  
+ Time: 27 of 90 seconds.  Estimated final completion at 12:59:22.
+                                                                                                  
+ Time: 28 of 90 seconds.  Estimated final completion at 12:59:22.
+                                                                                                  
+ Time: 29 of 90 seconds.  Estimated final completion at 12:59:22.
+                                                                                                  
+ Time: 30 of 90 seconds.  Estimated final completion at 12:59:22.
+                                                                                                  
+ Time: 31 of 90 seconds.  Estimated final completion at 12:59:22.
+                                                                                                  
+ Time: 32 of 90 seconds.  Estimated final completion at 12:59:40.
+                                                                                                  
+ Time: 33 of 90 seconds.  Estimated final completion at 12:59:29.
+                                                                                                  
+ Time: 34 of 90 seconds.  Estimated final completion at 12:59:23.
+                                                                                                  
+ Time: 35 of 90 seconds.  Estimated final completion at 12:59:23.
+                                                                                                  
+ Time: 36 of 90 seconds.  Estimated final completion at 12:59:23.
+                                                                                                  
+ Time: 37 of 90 seconds.  Estimated final completion at 12:59:23.
+                                                                                                  
+ Time: 38 of 90 seconds.  Estimated final completion at 12:59:23.
+                                                                                                  
+ Time: 39 of 90 seconds.  Estimated final completion at 12:59:23.
+                                                                                                  
+ Time: 40 of 90 seconds.  Estimated final completion at 12:59:23.
+                                                                                                  
+ Time: 41 of 90 seconds.  Estimated final completion at 12:59:24.
+                                                                                                  
+ Time: 42 of 90 seconds.  Estimated final completion at 12:59:25.
+                                                                                                  
+ Time: 43 of 90 seconds.  Estimated final completion at 12:59:23.
+                                                                                                  
+ Time: 44 of 90 seconds.  Estimated final completion at 12:59:23.
+                                                                                                  
+ Time: 45 of 90 seconds.  Estimated final completion at 12:59:23.
+                                                                                                  
+ Time: 46 of 90 seconds.  Estimated final completion at 12:59:24.
+                                                                                                  
+ Time: 47 of 90 seconds.  Estimated final completion at 12:59:25.
+                                                                                                  
+ Time: 48 of 90 seconds.  Estimated final completion at 12:59:24.
+                                                                                                  
+ Time: 49 of 90 seconds.  Estimated final completion at 12:59:23.
+                                                                                                  
+ Time: 50 of 90 seconds.  Estimated final completion at 12:59:24.
+                                                                                                  
+ Time: 51 of 90 seconds.  Estimated final completion at 12:59:24.
+                                                                                                  
+ Time: 52 of 90 seconds.  Estimated final completion at 12:59:23.
+                                                                                                  
+ Time: 53 of 90 seconds.  Estimated final completion at 12:59:23.
+                                                                                                  
+ Time: 54 of 90 seconds.  Estimated final completion at 12:59:23.
+                                                                                                  
+ Time: 55 of 90 seconds.  Estimated final completion at 12:59:23.
+                                                                                                  
+ Time: 56 of 90 seconds.  Estimated final completion at 12:59:34.
+                                                                                                  
+ Time: 57 of 90 seconds.  Estimated final completion at 12:59:36.
+                                                                                                  
+ Time: 58 of 90 seconds.  Estimated final completion at 12:59:30.
+                                                                                                  
+ Time: 59 of 90 seconds.  Estimated final completion at 12:59:24.
+                                                                                                  
+ Time: 60 of 90 seconds.  Estimated final completion at 12:59:24.
+                                                                                                  
+ Time: 61 of 90 seconds.  Estimated final completion at 12:59:24.
+                                                                                                  
+ Time: 62 of 90 seconds.  Estimated final completion at 12:59:26.
+                                                                                                  
+ Time: 63 of 90 seconds.  Estimated final completion at 12:59:25.
+                                                                                                  
+ Time: 64 of 90 seconds.  Estimated final completion at 12:59:32.
+                                                                                                  
+ Time: 65 of 90 seconds.  Estimated final completion at 12:59:35.
+                                                                                                  
+ Time: 66 of 90 seconds.  Estimated final completion at 12:59:39.
+                                                                                                  
+ Time: 67 of 90 seconds.  Estimated final completion at 12:59:37.
+                                                                                                  
+ Time: 68 of 90 seconds.  Estimated final completion at 12:59:39.
+                                                                                                  
+ Time: 69 of 90 seconds.  Estimated final completion at 12:59:28.
+                                                                                                  
+ Time: 70 of 90 seconds.  Estimated final completion at 12:59:33.
+                                                                                                  
+ Time: 71 of 90 seconds.  Estimated final completion at 12:59:38.
+                                                                                                  
+ Time: 72 of 90 seconds.  Estimated final completion at 12:59:28.
+                                                                                                  
+ Time: 73 of 90 seconds.  Estimated final completion at 12:59:27.
+                                                                                                  
+ Time: 74 of 90 seconds.  Estimated final completion at 12:59:28.
+                                                                                                  
+ Time: 75 of 90 seconds.  Estimated final completion at 12:59:27.
+                                                                                                  
+ Time: 76 of 90 seconds.  Estimated final completion at 12:59:28.
+                                                                                                  
+ Time: 77 of 90 seconds.  Estimated final completion at 12:59:27.
+                                                                                                  
+ Time: 78 of 90 seconds.  Estimated final completion at 12:59:28.
+                                                                                                  
+ Time: 79 of 90 seconds.  Estimated final completion at 12:59:28.
+                                                                                                  
+ Time: 80 of 90 seconds.  Estimated final completion at 12:59:27.
+                                                                                                  
+ Time: 81 of 90 seconds.  Estimated final completion at 12:59:27.
+                                                                                                  
+ Time: 82 of 90 seconds.  Estimated final completion at 12:59:27.
+                                                                                                  
+ Time: 83 of 90 seconds.  Estimated final completion at 12:59:27.
+                                                                                                  
+ Time: 84 of 90 seconds.  Estimated final completion at 12:59:27.
+                                                                                                  
+ Time: 85 of 90 seconds.  Estimated final completion at 12:59:27.
+                                                                                                  
+ Time: 86 of 90 seconds.  Estimated final completion at 12:59:27.
+                                                                                                  
+ Time: 87 of 90 seconds.  Estimated final completion at 12:59:27.
+                                                                                                  
+ Time: 88 of 90 seconds.  Estimated final completion at 12:59:27.
+                                                                                                  
+ Time: 89 of 90 seconds.  Estimated final completion at 12:59:27.
+                                                                                                  
+ Time: 90 of 90 seconds.  Estimated final completion at 12:59:27.
+                                                                                                  

  Total Real Time:       36.562 seconds
  Total CPU Time:        31.576 seconds
  Simulation CPU Time:   30.268 seconds
  Simulated Time:        90 seconds
  Time Ratio (Sim/CPU):  2.9735

  OpenFAST terminated normally.

