
 **************************************************************************************************
 OpenFAST

 Copyright (C) 2023 National Renewable Energy Laboratory
 Copyright (C) 2023 Envision Energy USA LTD

 This program is licensed under Apache License Version 2.0 and comes with ABSOLUTELY NO WARRANTY.
 See the "LICENSE" file distributed with this software for details.
 **************************************************************************************************

 OpenFAST-v3.5.0-118-g2774b6c4-dirty
 Compile Info:
  - Compiler: GCC version 10.5.0
  - Architecture: 64 bit
  - Precision: double
  - OpenMP: No
  - Date: Oct 16 2023
  - Time: 11:00:11
 Execution Info:
  - Date: 10/16/2023
  - Time: 11:00:25-0600

 OpenFAST input file heading:
     FAST Certification Test #25: NREL 5.0 MW Baseline Wind Turbine with OC4-DeepCwind semi
     configuration, for use in offshore analysis

 Running ElastoDyn.
 Nodal outputs section of ElastoDyn input file not found or improperly formatted.
 Running HydroDyn.
   Setting WaveTMax to 0.0 since WaveMod = 0
  Reading in WAMIT output with root name
  "/Users/aplatt/software-development/GitHub/openfast-4/build/reg_tests/glue-codes/openfast/StC_tes
  t_OC4Semi/../5MW_Baseline/HydroData/marin_semi".
  Computing radiation impulse response functions and wave diffraction forces.
 Running MoorDyn (v2.0.0, 2023-09-18).
    This is MoorDyn v2, with significant input file changes from v1.
    Copyright: (C) 2023 National Renewable Energy Laboratory, (C) 2019 Matt Hall
    Parsing MoorDyn input file:
    /Users/aplatt/software-development/GitHub/openfast-4/build/reg_tests/glue-codes/openfast/StC_te
    st_OC4Semi/NRELOffshrBsline5MW_OC4DeepCwindSemi_MoorDyn.dat
   Created mooring system:  3 lines, 6 points, 0 rods, 0 bodies.
    Catenary solve of Line 1 unsuccessful. Initializing as linear.
    Catenary solve of Line 2 unsuccessful. Initializing as linear.
    Catenary solve of Line 3 unsuccessful. Initializing as linear.
    Finalizing initial conditions using dynamic relaxation.

   t=2  FairTen 1: 1.07146E+05, 1, 2                                                                 t=4  FairTen 1: 1.47169E+05, 1.07146E+05, 1                                                       t=6  FairTen 1: 1.84197E+05, 1.47169E+05, 1.07146E+05                                             t=8  FairTen 1: 2.24980E+05, 1.84197E+05, 1.47169E+05                                             t=10  FairTen 1: 2.47020E+05, 2.24980E+05, 1.84197E+05                                            t=12  FairTen 1: 2.64782E+05, 2.47020E+05, 2.24980E+05                                            t=14  FairTen 1: 3.10678E+05, 2.64782E+05, 2.47020E+05                                            t=16  FairTen 1: 3.18390E+05, 3.10678E+05, 2.64782E+05                                            t=18  FairTen 1: 6.11868E+05, 3.18390E+05, 3.10678E+05                                            t=20  FairTen 1: 7.87353E+05, 6.11868E+05, 3.18390E+05                                            t=22  FairTen 1: 1.02233E+06, 7.87353E+05, 6.11868E+05                                            t=24  FairTen 1: 1.07941E+06, 1.02233E+06, 7.87353E+05                                            t=26  FairTen 1: 1.04818E+06, 1.07941E+06, 1.02233E+06                                            t=28  FairTen 1: 1.06803E+06, 1.04818E+06, 1.07941E+06                                            t=30  FairTen 1: 1.06323E+06, 1.06803E+06, 1.04818E+06                                            t=32  FairTen 1: 1.05399E+06, 1.06323E+06, 1.06803E+06                                            t=34  FairTen 1: 1.06176E+06, 1.05399E+06, 1.06323E+06                                            t=36  FairTen 1: 1.05732E+06, 1.06176E+06, 1.05399E+06                                            t=38  FairTen 1: 1.06422E+06, 1.05732E+06, 1.06176E+06                                            t=40  FairTen 1: 1.05593E+06, 1.06422E+06, 1.05732E+06                                            t=42  FairTen 1: 1.06032E+06, 1.05593E+06, 1.06422E+06                                            t=44  FairTen 1: 1.05998E+06, 1.06032E+06, 1.05593E+06                                            t=46  FairTen 1: 1.05702E+06, 1.05998E+06, 1.06032E+06                                            t=48  FairTen 1: 1.06241E+06, 1.05702E+06, 1.05998E+06                                            t=50  FairTen 1: 1.05663E+06, 1.06241E+06, 1.05702E+06                                            t=52  FairTen 1: 1.06039E+06, 1.05663E+06, 1.06241E+06                                            t=54  FairTen 1: 1.05931E+06, 1.06039E+06, 1.05663E+06                                             Fairlead tensions converged to 1% after 54 seconds.
    Fairlead tension: 1.05931E+06
    Fairlead forces: 4.30206E+05, 7.47103E+05, -6.15543E+05
    Fairlead tension: 1.19987E+06
    Fairlead forces: -1.00032E+06, 0, -6.62614E+05
    Fairlead tension: 1.05931E+06
    Fairlead forces: 4.30206E+05, -7.47103E+05, -6.15543E+05
    MoorDyn initialization completed.
 Running ServoDyn.
 Running StrucCtrl.
 Running StrucCtrl.
 Running StrucCtrl.
 Running StrucCtrl.
 Running StrucCtrl.
  Time: 0 of 90 seconds.
                                                                                                   Time: 1 of 90 seconds.  Estimated final completion at 11:01:21.                                                                                                                                     Time: 2 of 90 seconds.  Estimated final completion at 11:01:20.                                                                                                                                     Time: 3 of 90 seconds.  Estimated final completion at 11:01:21.                                  
 FAST_Solution:FAST_AdvanceStates:ED_ABM4:ED_CalcContStateDeriv:SetCoordSy:Small angle assumption
 violated in SUBROUTINE SmllRotTrans() due to a large blade deflection (ElastoDyn SetCoordSy). The
 solution may be inaccurate. Simulation continuing, but future warnings from SmllRotTrans() will
 be suppressed.
  Additional debugging message from SUBROUTINE SmllRotTrans(): 3.4 s

                                                                                                   Time: 4 of 90 seconds.  Estimated final completion at 11:01:15.                                                                                                                                     Time: 5 of 90 seconds.  Estimated final completion at 11:01:18.                                                                                                                                     Time: 6 of 90 seconds.  Estimated final completion at 11:01:19.                                                                                                                                     Time: 7 of 90 seconds.  Estimated final completion at 11:01:18.                                                                                                                                     Time: 8 of 90 seconds.  Estimated final completion at 11:01:23.                                                                                                                                     Time: 9 of 90 seconds.  Estimated final completion at 11:01:18.                                                                                                                                     Time: 10 of 90 seconds.  Estimated final completion at 11:01:20.                                                                                                                                    Time: 11 of 90 seconds.  Estimated final completion at 11:01:18.                                                                                                                                    Time: 12 of 90 seconds.  Estimated final completion at 11:01:19.                                                                                                                                    Time: 13 of 90 seconds.  Estimated final completion at 11:01:27.                                                                                                                                    Time: 14 of 90 seconds.  Estimated final completion at 11:01:21.                                                                                                                                    Time: 15 of 90 seconds.  Estimated final completion at 11:01:24.                                                                                                                                    Time: 16 of 90 seconds.  Estimated final completion at 11:01:23.                                                                                                                                    Time: 17 of 90 seconds.  Estimated final completion at 11:01:22.                                                                                                                                    Time: 18 of 90 seconds.  Estimated final completion at 11:01:22.                                                                                                                                    Time: 19 of 90 seconds.  Estimated final completion at 11:01:24.                                                                                                                                    Time: 20 of 90 seconds.  Estimated final completion at 11:01:25.                                                                                                                                    Time: 21 of 90 seconds.  Estimated final completion at 11:01:24.                                                                                                                                    Time: 22 of 90 seconds.  Estimated final completion at 11:01:26.                                                                                                                                    Time: 23 of 90 seconds.  Estimated final completion at 11:01:24.                                                                                                                                    Time: 24 of 90 seconds.  Estimated final completion at 11:01:23.                                                                                                                                    Time: 25 of 90 seconds.  Estimated final completion at 11:01:27.                                                                                                                                    Time: 26 of 90 seconds.  Estimated final completion at 11:01:27.                                                                                                                                    Time: 27 of 90 seconds.  Estimated final completion at 11:01:28.                                                                                                                                    Time: 28 of 90 seconds.  Estimated final completion at 11:01:29.                                                                                                                                    Time: 29 of 90 seconds.  Estimated final completion at 11:01:28.                                                                                                                                    Time: 30 of 90 seconds.  Estimated final completion at 11:01:26.                                                                                                                                    Time: 31 of 90 seconds.  Estimated final completion at 11:01:26.                                                                                                                                    Time: 32 of 90 seconds.  Estimated final completion at 11:01:25.                                                                                                                                    Time: 33 of 90 seconds.  Estimated final completion at 11:01:25.                                                                                                                                    Time: 34 of 90 seconds.  Estimated final completion at 11:01:25.                                                                                                                                    Time: 35 of 90 seconds.  Estimated final completion at 11:01:27.                                                                                                                                    Time: 36 of 90 seconds.  Estimated final completion at 11:01:26.                                                                                                                                    Time: 37 of 90 seconds.  Estimated final completion at 11:01:30.                                                                                                                                    Time: 38 of 90 seconds.  Estimated final completion at 11:01:30.                                                                                                                                    Time: 39 of 90 seconds.  Estimated final completion at 11:01:38.                                                                                                                                    Time: 40 of 90 seconds.  Estimated final completion at 11:01:30.                                                                                                                                    Time: 41 of 90 seconds.  Estimated final completion at 11:01:26.                                                                                                                                    Time: 42 of 90 seconds.  Estimated final completion at 11:01:28.                                                                                                                                    Time: 43 of 90 seconds.  Estimated final completion at 11:01:30.                                                                                                                                    Time: 44 of 90 seconds.  Estimated final completion at 11:01:26.                                                                                                                                    Time: 45 of 90 seconds.  Estimated final completion at 11:01:27.                                                                                                                                    Time: 46 of 90 seconds.  Estimated final completion at 11:01:27.                                                                                                                                    Time: 47 of 90 seconds.  Estimated final completion at 11:01:28.                                                                                                                                    Time: 48 of 90 seconds.  Estimated final completion at 11:01:28.                                                                                                                                    Time: 49 of 90 seconds.  Estimated final completion at 11:01:25.                                                                                                                                    Time: 50 of 90 seconds.  Estimated final completion at 11:01:27.                                                                                                                                    Time: 51 of 90 seconds.  Estimated final completion at 11:01:27.                                                                                                                                    Time: 52 of 90 seconds.  Estimated final completion at 11:01:29.                                                                                                                                    Time: 53 of 90 seconds.  Estimated final completion at 11:01:30.                                                                                                                                    Time: 54 of 90 seconds.  Estimated final completion at 11:01:32.                                                                                                                                    Time: 55 of 90 seconds.  Estimated final completion at 11:01:31.                                                                                                                                    Time: 56 of 90 seconds.  Estimated final completion at 11:01:30.                                                                                                                                    Time: 57 of 90 seconds.  Estimated final completion at 11:01:27.                                                                                                                                    Time: 58 of 90 seconds.  Estimated final completion at 11:01:29.                                                                                                                                    Time: 59 of 90 seconds.  Estimated final completion at 11:01:27.                                                                                                                                    Time: 60 of 90 seconds.  Estimated final completion at 11:01:29.                                                                                                                                    Time: 61 of 90 seconds.  Estimated final completion at 11:01:30.                                                                                                                                    Time: 62 of 90 seconds.  Estimated final completion at 11:01:28.                                                                                                                                    Time: 63 of 90 seconds.  Estimated final completion at 11:01:28.                                                                                                                                    Time: 64 of 90 seconds.  Estimated final completion at 11:01:29.                                                                                                                                    Time: 65 of 90 seconds.  Estimated final completion at 11:01:29.                                                                                                                                    Time: 66 of 90 seconds.  Estimated final completion at 11:01:28.                                                                                                                                    Time: 67 of 90 seconds.  Estimated final completion at 11:01:28.                                                                                                                                    Time: 68 of 90 seconds.  Estimated final completion at 11:01:29.                                                                                                                                    Time: 69 of 90 seconds.  Estimated final completion at 11:01:29.                                                                                                                                    Time: 70 of 90 seconds.  Estimated final completion at 11:01:28.                                                                                                                                    Time: 71 of 90 seconds.  Estimated final completion at 11:01:28.                                                                                                                                    Time: 72 of 90 seconds.  Estimated final completion at 11:01:28.                                                                                                                                    Time: 73 of 90 seconds.  Estimated final completion at 11:01:29.                                                                                                                                    Time: 74 of 90 seconds.  Estimated final completion at 11:01:28.                                                                                                                                    Time: 75 of 90 seconds.  Estimated final completion at 11:01:28.                                                                                                                                    Time: 76 of 90 seconds.  Estimated final completion at 11:01:28.                                                                                                                                    Time: 77 of 90 seconds.  Estimated final completion at 11:01:28.                                                                                                                                    Time: 78 of 90 seconds.  Estimated final completion at 11:01:28.                                                                                                                                    Time: 79 of 90 seconds.  Estimated final completion at 11:01:28.                                                                                                                                    Time: 80 of 90 seconds.  Estimated final completion at 11:01:28.                                                                                                                                    Time: 81 of 90 seconds.  Estimated final completion at 11:01:28.                                                                                                                                    Time: 82 of 90 seconds.  Estimated final completion at 11:01:28.                                                                                                                                    Time: 83 of 90 seconds.  Estimated final completion at 11:01:28.                                                                                                                                    Time: 84 of 90 seconds.  Estimated final completion at 11:01:28.                                                                                                                                    Time: 85 of 90 seconds.  Estimated final completion at 11:01:28.                                                                                                                                    Time: 86 of 90 seconds.  Estimated final completion at 11:01:28.                                                                                                                                    Time: 87 of 90 seconds.  Estimated final completion at 11:01:28.                                                                                                                                    Time: 88 of 90 seconds.  Estimated final completion at 11:01:28.                                                                                                                                    Time: 89 of 90 seconds.  Estimated final completion at 11:01:28.                                                                                                                                    Time: 90 of 90 seconds.  Estimated final completion at 11:01:28.                                                                                                                                   
  Total Real Time:       1.0472 minutes
  Total CPU Time:        1.0229 minutes
  Simulation CPU Time:   0.96068 minutes
  Simulated Time:        1.5 minutes
  Time Ratio (Sim/CPU):  1.5614

  OpenFAST terminated normally.

