
 **************************************************************************************************
 OpenFAST

 Copyright (C) 2022 National Renewable Energy Laboratory
 Copyright (C) 2022 Envision Energy USA LTD

 This program is licensed under Apache License Version 2.0 and comes with ABSOLUTELY NO WARRANTY.
 See the "LICENSE" file distributed with this software for details.
 **************************************************************************************************

 OpenFAST-v3.2.1-270-gf067eb99-dirty
 Compile Info:
  - Compiler: GCC version 10.3.0
  - Architecture: 64 bit
  - Precision: double
  - OpenMP: No
  - Date: Sep  8 2022
  - Time: 13:54:10
 Execution Info:
  - Date: 09/08/2022
  - Time: 14:18:23-0600

 OpenFAST input file heading:
     FAST Certification Test #25: NREL 5.0 MW Baseline Wind Turbine with OC4-DeepCwind semi
     configuration, for use in offshore analysis

 Running ElastoDyn.
 Nodal outputs section of ElastoDyn input file not found or improperly formatted.
 Running HydroDyn.
   Setting WaveTMax to 0.0 since WaveMod = 0
  Reading in WAMIT output with root name
  "/Users/aplatt/software-development/GitHub/openfast-5/build/reg_tests/glue-codes/openfast/StC_tes
  t_OC4Semi/../5MW_Baseline/HydroData/marin_semi".
  Computing radiation impulse response functions and wave diffraction forces.
 Running MoorDyn (v2.a27, 2022-07-20).
    This is an alpha version of MoorDyn-F v2, with significant input file changes from v1.
    Copyright: (C) 2021 National Renewable Energy Laboratory, (C) 2019 Matt Hall
    Parsing MoorDyn input file:
    /Users/aplatt/software-development/GitHub/openfast-5/build/reg_tests/glue-codes/openfast/StC_te
    st_OC4Semi/NRELOffshrBsline5MW_OC4DeepCwindSemi_MoorDyn.dat
   Created mooring system:  3 lines, 6 points, 0 rods, 0 bodies.
    Finalizing initial conditions using dynamic relaxation.

   t=2  FairTen 1: 1.22965E+06, 1, 2                                                                 t=4  FairTen 1: 1.01102E+06, 1.22965E+06, 1                                                       t=6  FairTen 1: 1.03519E+06, 1.01102E+06, 1.22965E+06                                             t=8  FairTen 1: 1.07974E+06, 1.03519E+06, 1.01102E+06                                             t=10  FairTen 1: 1.04219E+06, 1.07974E+06, 1.03519E+06                                            t=12  FairTen 1: 1.07349E+06, 1.04219E+06, 1.07974E+06                                            t=14  FairTen 1: 1.06731E+06, 1.07349E+06, 1.04219E+06                                            t=16  FairTen 1: 1.03151E+06, 1.06731E+06, 1.07349E+06                                            t=18  FairTen 1: 1.07494E+06, 1.03151E+06, 1.06731E+06                                            t=20  FairTen 1: 1.06902E+06, 1.07494E+06, 1.03151E+06                                            t=22  FairTen 1: 1.04879E+06, 1.06902E+06, 1.07494E+06                                            t=24  FairTen 1: 1.05961E+06, 1.04879E+06, 1.06902E+06                                            t=26  FairTen 1: 1.06294E+06, 1.05961E+06, 1.04879E+06                                            t=28  FairTen 1: 1.05841E+06, 1.06294E+06, 1.05961E+06                                            t=30  FairTen 1: 1.05972E+06, 1.05841E+06, 1.06294E+06                                            t=32  FairTen 1: 1.06390E+06, 1.05972E+06, 1.05841E+06                                            t=34  FairTen 1: 1.05077E+06, 1.06390E+06, 1.05972E+06                                            t=36  FairTen 1: 1.06288E+06, 1.05077E+06, 1.06390E+06                                            t=38  FairTen 1: 1.06600E+06, 1.06288E+06, 1.05077E+06                                            t=40  FairTen 1: 1.05091E+06, 1.06600E+06, 1.06288E+06                                            t=42  FairTen 1: 1.06178E+06, 1.05091E+06, 1.06600E+06                                            t=44  FairTen 1: 1.06121E+06, 1.06178E+06, 1.05091E+06                                            t=46  FairTen 1: 1.05773E+06, 1.06121E+06, 1.06178E+06                                            t=48  FairTen 1: 1.06045E+06, 1.05773E+06, 1.06121E+06                                            t=50  FairTen 1: 1.05950E+06, 1.06045E+06, 1.05773E+06                                            t=52  FairTen 1: 1.05776E+06, 1.05950E+06, 1.06045E+06                                            t=54  FairTen 1: 1.05943E+06, 1.05776E+06, 1.05950E+06                                            t=56  FairTen 1: 1.06338E+06, 1.05943E+06, 1.05776E+06                                            t=58  FairTen 1: 1.05502E+06, 1.06338E+06, 1.05943E+06                                            t=60  FairTen 1: 1.05964E+06, 1.05502E+06, 1.06338E+06                                             Fairlead tensions did not converge within TMaxIC=60 seconds.
    MoorDyn initialization completed.
 Running ServoDyn.
 Running StrucCtrl.
 Running StrucCtrl.
 Running StrucCtrl.
 Running StrucCtrl.
 Running StrucCtrl.
  Time: 0 of 90 seconds.
                                                                                                   Time: 1 of 90 seconds.  Estimated final completion at 14:31:49.                                                                                                                                     Time: 2 of 90 seconds.  Estimated final completion at 14:31:03.                                                                                                                                     Time: 3 of 90 seconds.  Estimated final completion at 14:30:13.                                  
 FAST_Solution:FAST_AdvanceStates:ED_ABM4:ED_CalcContStateDeriv:SetCoordSy:Small angle assumption
 violated in SUBROUTINE SmllRotTrans() due to a large blade deflection (ElastoDyn SetCoordSy). The
 solution may be inaccurate. Simulation continuing, but future warnings from SmllRotTrans() will
 be suppressed.
  Additional debugging message from SUBROUTINE SmllRotTrans(): 3.4 s

                                                                                                   Time: 4 of 90 seconds.  Estimated final completion at 14:29:54.                                                                                                                                     Time: 5 of 90 seconds.  Estimated final completion at 14:29:60.                                                                                                                                     Time: 6 of 90 seconds.  Estimated final completion at 14:29:50.                                                                                                                                     Time: 7 of 90 seconds.  Estimated final completion at 14:30:05.                                                                                                                                     Time: 8 of 90 seconds.  Estimated final completion at 14:29:42.                                                                                                                                     Time: 9 of 90 seconds.  Estimated final completion at 14:29:58.                                                                                                                                     Time: 10 of 90 seconds.  Estimated final completion at 14:30:48.                                                                                                                                    Time: 11 of 90 seconds.  Estimated final completion at 14:31:30.                                                                                                                                    Time: 12 of 90 seconds.  Estimated final completion at 14:31:55.                                                                                                                                    Time: 13 of 90 seconds.  Estimated final completion at 14:33:42.                                                                                                                                    Time: 14 of 90 seconds.  Estimated final completion at 14:33:27.                                                                                                                                    Time: 15 of 90 seconds.  Estimated final completion at 14:31:42.                                                                                                                                    Time: 16 of 90 seconds.  Estimated final completion at 14:31:40.                                                                                                                                    Time: 17 of 90 seconds.  Estimated final completion at 14:38:47.                                                                                                                                    Time: 18 of 90 seconds.  Estimated final completion at 14:40:19.                                                                                                                                    Time: 19 of 90 seconds.  Estimated final completion at 14:42:22.                                                                                                                                    Time: 20 of 90 seconds.  Estimated final completion at 14:53:33.                                                                                                                                    Time: 21 of 90 seconds.  Estimated final completion at 14:38:20.                                                                                                                                    Time: 22 of 90 seconds.  Estimated final completion at 14:36:51.                                                                                                                                    Time: 23 of 90 seconds.  Estimated final completion at 14:34:40.                                                                                                                                    Time: 24 of 90 seconds.  Estimated final completion at 14:35:26.                                                                                                                                    Time: 25 of 90 seconds.  Estimated final completion at 14:44:26.                                                                                                                                    Time: 26 of 90 seconds.  Estimated final completion at 14:46:19.                                                                                                                                    Time: 27 of 90 seconds.  Estimated final completion at 14:51:01.                                                                                                                                    Time: 28 of 90 seconds.  Estimated final completion at 14:53:21.                                                                                                                                    Time: 29 of 90 seconds.  Estimated final completion at 14:51:17.                                                                                                                                    Time: 30 of 90 seconds.  Estimated final completion at 14:54:51.                                                                                                                                    Time: 31 of 90 seconds.  Estimated final completion at 14:48:46.                                                                                                                                    Time: 32 of 90 seconds.  Estimated final completion at 14:49:56.                                                                                                                                    Time: 33 of 90 seconds.  Estimated final completion at 14:50:32.                                                                                                                                    Time: 34 of 90 seconds.  Estimated final completion at 14:50:26.                                                                                                                                    Time: 35 of 90 seconds.  Estimated final completion at 14:46:31.                                                                                                                                    Time: 36 of 90 seconds.  Estimated final completion at 14:40:57.                                                                                                                                    Time: 37 of 90 seconds.  Estimated final completion at 14:37:54.                                                                                                                                    Time: 38 of 90 seconds.  Estimated final completion at 14:39:31.                                                                                                                                    Time: 39 of 90 seconds.  Estimated final completion at 14:43:29.                                                                                                                                    Time: 40 of 90 seconds.  Estimated final completion at 14:43:45.                                                                                                                                    Time: 41 of 90 seconds.  Estimated final completion at 14:38:50.                                                                                                                                    Time: 42 of 90 seconds.  Estimated final completion at 14:40:11.                                                                                                                                    Time: 43 of 90 seconds.  Estimated final completion at 14:39:25.                                                                                                                                    Time: 44 of 90 seconds.  Estimated final completion at 14:39:01.                                                                                                                                    Time: 45 of 90 seconds.  Estimated final completion at 14:37:54.                                                                                                                                    Time: 46 of 90 seconds.  Estimated final completion at 14:37:57.                                                                                                                                    Time: 47 of 90 seconds.  Estimated final completion at 14:37:26.                                                                                                                                    Time: 48 of 90 seconds.  Estimated final completion at 14:37:12.                                                                                                                                    Time: 49 of 90 seconds.  Estimated final completion at 14:37:15.                                                                                                                                    Time: 50 of 90 seconds.  Estimated final completion at 14:37:17.                                                                                                                                    Time: 51 of 90 seconds.  Estimated final completion at 14:37:23.                                                                                                                                    Time: 52 of 90 seconds.  Estimated final completion at 14:37:24.                                                                                                                                    Time: 53 of 90 seconds.  Estimated final completion at 14:37:40.                                                                                                                                    Time: 54 of 90 seconds.  Estimated final completion at 14:38:07.                                                                                                                                    Time: 55 of 90 seconds.  Estimated final completion at 14:38:38.                                                                                                                                    Time: 56 of 90 seconds.  Estimated final completion at 14:38:31.                                                                                                                                    Time: 57 of 90 seconds.  Estimated final completion at 14:38:35.                                                                                                                                    Time: 58 of 90 seconds.  Estimated final completion at 14:37:58.                                                                                                                                    Time: 59 of 90 seconds.  Estimated final completion at 14:37:28.                                                                                                                                    Time: 60 of 90 seconds.  Estimated final completion at 14:37:23.                                                                                                                                    Time: 61 of 90 seconds.  Estimated final completion at 14:37:23.                                                                                                                                    Time: 62 of 90 seconds.  Estimated final completion at 14:38:03.                                                                                                                                    Time: 63 of 90 seconds.  Estimated final completion at 14:38:03.                                                                                                                                    Time: 64 of 90 seconds.  Estimated final completion at 14:37:51.                                                                                                                                    Time: 65 of 90 seconds.  Estimated final completion at 14:37:39.                                                                                                                                    Time: 66 of 90 seconds.  Estimated final completion at 14:37:33.                                                                                                                                    Time: 67 of 90 seconds.  Estimated final completion at 14:37:21.                                                                                                                                    Time: 68 of 90 seconds.  Estimated final completion at 14:37:14.                                                                                                                                    Time: 69 of 90 seconds.  Estimated final completion at 14:37:19.                                                                                                                                    Time: 70 of 90 seconds.  Estimated final completion at 14:37:31.                                                                                                                                    Time: 71 of 90 seconds.  Estimated final completion at 14:37:35.                                                                                                                                    Time: 72 of 90 seconds.  Estimated final completion at 14:37:39.                                                                                                                                    Time: 73 of 90 seconds.  Estimated final completion at 14:37:37.                                                                                                                                    Time: 74 of 90 seconds.  Estimated final completion at 14:37:38.                                                                                                                                    Time: 75 of 90 seconds.  Estimated final completion at 14:37:49.                                                                                                                                    Time: 76 of 90 seconds.  Estimated final completion at 14:38:06.                                                                                                                                    Time: 77 of 90 seconds.  Estimated final completion at 14:38:27.                                                                                                                                    Time: 78 of 90 seconds.  Estimated final completion at 14:38:20.                                                                                                                                    Time: 79 of 90 seconds.  Estimated final completion at 14:38:15.                                                                                                                                    Time: 80 of 90 seconds.  Estimated final completion at 14:37:47.                                                                                                                                    Time: 81 of 90 seconds.  Estimated final completion at 14:37:38.                                                                                                                                    Time: 82 of 90 seconds.  Estimated final completion at 14:37:60.                                                                                                                                    Time: 83 of 90 seconds.  Estimated final completion at 14:37:37.                                                                                                                                    Time: 84 of 90 seconds.  Estimated final completion at 14:37:33.                                                                                                                                    Time: 85 of 90 seconds.  Estimated final completion at 14:37:33.                                                                                                                                    Time: 86 of 90 seconds.  Estimated final completion at 14:37:33.                                                                                                                                    Time: 87 of 90 seconds.  Estimated final completion at 14:37:37.                                                                                                                                    Time: 88 of 90 seconds.  Estimated final completion at 14:37:38.                                                                                                                                    Time: 89 of 90 seconds.  Estimated final completion at 14:37:39.                                                                                                                                    Time: 90 of 90 seconds.  Estimated final completion at 14:37:39.                                                                                                                                   
  Total Real Time:       19.262 minutes
  Total CPU Time:        15.634 minutes
  Simulation CPU Time:   12.635 minutes
  Simulated Time:        1.5 minutes
  Time Ratio (Sim/CPU):  0.11871

  OpenFAST terminated normally.

