
 **************************************************************************************************
 OpenFAST

 Copyright (C) 2023 National Renewable Energy Laboratory
 Copyright (C) 2023 Envision Energy USA LTD

 This program is licensed under Apache License Version 2.0 and comes with ABSOLUTELY NO WARRANTY.
 See the "LICENSE" file distributed with this software for details.
 **************************************************************************************************

 OpenFAST-v3.5.1-568-g3f7133fe
 Compile Info:
  - Compiler: GCC version 10.5.0
  - Architecture: 64 bit
  - Precision: double
  - OpenMP: Yes, number of threads: 12/12
  - Date: Oct 24 2023
  - Time: 15:29:35
 Execution Info:
  - Date: 10/24/2023
  - Time: 22:06:00-0600

 OpenFAST input file heading:
     FAST Certification Test #25: NREL 5.0 MW Baseline Wind Turbine with OC4-DeepCwind semi
     configuration, for use in offshore analysis

 Running ElastoDyn.
 Running SeaState.
   Setting WaveTMax to TMax since WaveMod = 0
 Running HydroDyn.
  Reading in WAMIT output with root name
  "/Users/aplatt/software-development/GitHub/openfast-bug/build/reg_tests/glue-codes/openfast/StC_t
  est_OC4Semi/../5MW_Baseline/HydroData/marin_semi".
  Computing radiation impulse response functions and wave diffraction forces.
 Running MoorDyn (v2.0.0, 2023-09-18).
    This is MoorDyn v2, with significant input file changes from v1.
    Copyright: (C) 2023 National Renewable Energy Laboratory, (C) 2019 Matt Hall
    Parsing MoorDyn input file:
    /Users/aplatt/software-development/GitHub/openfast-bug/build/reg_tests/glue-codes/openfast/StC_
    test_OC4Semi/NRELOffshrBsline5MW_OC4DeepCwindSemi_MoorDyn.dat
   Created mooring system:  3 lines, 6 points, 0 rods, 0 bodies.
    Catenary solve of Line 1 unsuccessful. Initializing as linear.
    Catenary solve of Line 2 unsuccessful. Initializing as linear.
    Catenary solve of Line 3 unsuccessful. Initializing as linear.
    Finalizing initial conditions using dynamic relaxation.

   t=0.2  FairTen 1: 43987, 1, 2                                                                     t=0.4  FairTen 1: 56921, 43987, 1                                                                 t=0.6  FairTen 1: 64128, 56921, 43987                                                             t=0.8  FairTen 1: 68033, 64128, 56921                                                             t=1  FairTen 1: 70316, 68033, 64128                                                               t=1.2  FairTen 1: 71849, 70316, 68033                                                             t=1.4  FairTen 1: 73041, 71849, 70316                                                             t=1.6  FairTen 1: 74074, 73041, 71849                                                             t=1.8  FairTen 1: 75029, 74074, 73041                                                             t=2  FairTen 1: 75940, 75029, 74074                                                               t=2.2  FairTen 1: 76823, 75940, 75029                                                             t=2.4  FairTen 1: 77686, 76823, 75940                                                             t=2.6  FairTen 1: 78530, 77686, 76823                                                             t=2.8  FairTen 1: 79357, 78530, 77686                                                             t=3  FairTen 1: 80169, 79357, 78530                                                               t=3.2  FairTen 1: 80966, 80169, 79357                                                             t=3.4  FairTen 1: 81748, 80966, 80169                                                             t=3.6  FairTen 1: 82515, 81748, 80966                                                             t=3.8  FairTen 1: 83268, 82515, 81748                                                             t=4  FairTen 1: 84006, 83268, 82515                                                               t=4.2  FairTen 1: 84731, 84006, 83268                                                             t=4.4  FairTen 1: 85443, 84731, 84006                                                             t=4.6  FairTen 1: 86142, 85443, 84731                                                             t=4.8  FairTen 1: 1.03071E+05, 86142, 85443                                                       t=5  FairTen 1: 98063, 1.03071E+05, 86142                                                         t=5.2  FairTen 1: 96960, 98063, 1.03071E+05                                                       t=5.4  FairTen 1: 96713, 96960, 98063                                                             t=5.6  FairTen 1: 1.15288E+05, 96713, 96960                                                       t=5.8  FairTen 1: 1.06386E+05, 1.15288E+05, 96713                                                 t=6  FairTen 1: 1.05745E+05, 1.06386E+05, 1.15288E+05                                             t=6.2  FairTen 1: 1.05910E+05, 1.05745E+05, 1.06386E+05                                           t=6.4  FairTen 1: 1.23401E+05, 1.05910E+05, 1.05745E+05                                           t=6.6  FairTen 1: 1.15979E+05, 1.23401E+05, 1.05910E+05                                           t=6.8  FairTen 1: 1.15381E+05, 1.15979E+05, 1.23401E+05                                           t=7  FairTen 1: 1.68829E+05, 1.15381E+05, 1.15979E+05                                             t=7.2  FairTen 1: 1.64306E+05, 1.68829E+05, 1.15381E+05                                           t=7.4  FairTen 1: 1.40565E+05, 1.64306E+05, 1.68829E+05                                           t=7.6  FairTen 1: 1.43860E+05, 1.40565E+05, 1.64306E+05                                           t=7.8  FairTen 1: 1.42952E+05, 1.43860E+05, 1.40565E+05                                           t=8  FairTen 1: 1.77414E+05, 1.42952E+05, 1.43860E+05                                             t=8.2  FairTen 1: 1.48083E+05, 1.77414E+05, 1.42952E+05                                           t=8.4  FairTen 1: 1.54854E+05, 1.48083E+05, 1.77414E+05                                           t=8.6  FairTen 1: 1.54181E+05, 1.54854E+05, 1.48083E+05                                           t=8.8  FairTen 1: 1.86895E+05, 1.54181E+05, 1.54854E+05                                           t=9  FairTen 1: 1.60875E+05, 1.86895E+05, 1.54181E+05                                             t=9.2  FairTen 1: 1.64102E+05, 1.60875E+05, 1.86895E+05                                           t=9.4  FairTen 1: 1.66611E+05, 1.64102E+05, 1.60875E+05                                           t=9.6  FairTen 1: 1.86649E+05, 1.66611E+05, 1.64102E+05                                           t=9.8  FairTen 1: 1.78500E+05, 1.86649E+05, 1.66611E+05                                           t=10  FairTen 1: 1.71211E+05, 1.78500E+05, 1.86649E+05                                            t=10.2  FairTen 1: 1.76909E+05, 1.71211E+05, 1.78500E+05                                          t=10.4  FairTen 1: 1.71630E+05, 1.76909E+05, 1.71211E+05                                          t=10.6  FairTen 1: 1.97919E+05, 1.71630E+05, 1.76909E+05                                          t=10.8  FairTen 1: 1.79376E+05, 1.97919E+05, 1.71630E+05                                          t=11  FairTen 1: 1.77207E+05, 1.79376E+05, 1.97919E+05                                            t=11.2  FairTen 1: 1.82921E+05, 1.77207E+05, 1.79376E+05                                          t=11.4  FairTen 1: 1.82049E+05, 1.82921E+05, 1.77207E+05                                          t=11.6  FairTen 1: 1.82745E+05, 1.82049E+05, 1.82921E+05                                          t=11.8  FairTen 1: 2.02518E+05, 1.82745E+05, 1.82049E+05                                          t=12  FairTen 1: 1.88559E+05, 2.02518E+05, 1.82745E+05                                            t=12.2  FairTen 1: 1.89755E+05, 1.88559E+05, 2.02518E+05                                          t=12.4  FairTen 1: 1.94984E+05, 1.89755E+05, 1.88559E+05                                          t=12.6  FairTen 1: 1.94352E+05, 1.94984E+05, 1.89755E+05                                          t=12.8  FairTen 1: 1.94511E+05, 1.94352E+05, 1.94984E+05                                          t=13  FairTen 1: 2.15723E+05, 1.94511E+05, 1.94352E+05                                            t=13.2  FairTen 1: 2.07149E+05, 2.15723E+05, 1.94511E+05                                          t=13.4  FairTen 1: 1.99841E+05, 2.07149E+05, 2.15723E+05                                          t=13.6  FairTen 1: 2.05136E+05, 1.99841E+05, 2.07149E+05                                          t=13.8  FairTen 1: 2.08726E+05, 2.05136E+05, 1.99841E+05                                          t=14  FairTen 1: 2.07876E+05, 2.08726E+05, 2.05136E+05                                            t=14.2  FairTen 1: 2.08380E+05, 2.07876E+05, 2.08726E+05                                          t=14.4  FairTen 1: 2.11256E+05, 2.08380E+05, 2.07876E+05                                          t=14.6  FairTen 1: 2.29516E+05, 2.11256E+05, 2.08380E+05                                          t=14.8  FairTen 1: 2.17436E+05, 2.29516E+05, 2.11256E+05                                          t=15  FairTen 1: 2.15609E+05, 2.17436E+05, 2.29516E+05                                            t=15.2  FairTen 1: 2.18715E+05, 2.15609E+05, 2.17436E+05                                          t=15.4  FairTen 1: 2.08182E+05, 2.18715E+05, 2.15609E+05                                          t=15.6  FairTen 1: 2.09744E+05, 2.08182E+05, 2.18715E+05                                          t=15.8  FairTen 1: 2.13734E+05, 2.09744E+05, 2.08182E+05                                          t=16  FairTen 1: 2.13921E+05, 2.13734E+05, 2.09744E+05                                            t=16.2  FairTen 1: 2.13562E+05, 2.13921E+05, 2.13734E+05                                          t=16.4  FairTen 1: 2.17492E+05, 2.13562E+05, 2.13921E+05                                          t=16.6  FairTen 1: 2.28798E+05, 2.17492E+05, 2.13562E+05                                          t=16.8  FairTen 1: 2.21892E+05, 2.28798E+05, 2.17492E+05                                          t=17  FairTen 1: 2.20565E+05, 2.21892E+05, 2.28798E+05                                            t=17.2  FairTen 1: 2.24956E+05, 2.20565E+05, 2.21892E+05                                          t=17.4  FairTen 1: 2.26757E+05, 2.24956E+05, 2.20565E+05                                          t=17.6  FairTen 1: 2.26606E+05, 2.26757E+05, 2.24956E+05                                          t=17.8  FairTen 1: 2.27249E+05, 2.26606E+05, 2.26757E+05                                          t=18  FairTen 1: 2.28701E+05, 2.27249E+05, 2.26606E+05                                            t=18.2  FairTen 1: 2.29872E+05, 2.28701E+05, 2.27249E+05                                          t=18.4  FairTen 1: 2.30696E+05, 2.29872E+05, 2.28701E+05                                          t=18.6  FairTen 1: 2.31605E+05, 2.30696E+05, 2.29872E+05                                          t=18.8  FairTen 1: 2.32643E+05, 2.31605E+05, 2.30696E+05                                          t=19  FairTen 1: 2.37987E+05, 2.32643E+05, 2.31605E+05                                            t=19.2  FairTen 1: 2.47590E+05, 2.37987E+05, 2.32643E+05                                          t=19.4  FairTen 1: 2.41471E+05, 2.47590E+05, 2.37987E+05                                          t=19.6  FairTen 1: 2.40191E+05, 2.41471E+05, 2.47590E+05                                          t=19.8  FairTen 1: 2.44652E+05, 2.40191E+05, 2.41471E+05                                          t=20  FairTen 1: 2.46793E+05, 2.44652E+05, 2.40191E+05                                            t=20.2  FairTen 1: 2.46881E+05, 2.46793E+05, 2.44652E+05                                          t=20.4  FairTen 1: 2.47140E+05, 2.46881E+05, 2.46793E+05                                          t=20.6  FairTen 1: 2.23774E+05, 2.47140E+05, 2.46881E+05                                          t=20.8  FairTen 1: 2.32928E+05, 2.23774E+05, 2.47140E+05                                          t=21  FairTen 1: 2.39394E+05, 2.32928E+05, 2.23774E+05                                            t=21.2  FairTen 1: 2.39795E+05, 2.39394E+05, 2.32928E+05                                          t=21.4  FairTen 1: 2.37829E+05, 2.39795E+05, 2.39394E+05                                          t=21.6  FairTen 1: 2.38488E+05, 2.37829E+05, 2.39795E+05                                          t=21.8  FairTen 1: 2.40418E+05, 2.38488E+05, 2.37829E+05                                          t=22  FairTen 1: 2.41446E+05, 2.40418E+05, 2.38488E+05                                            t=22.2  FairTen 1: 2.41927E+05, 2.41446E+05, 2.40418E+05                                          t=22.4  FairTen 1: 2.42692E+05, 2.41927E+05, 2.41446E+05                                          t=22.6  FairTen 1: 2.45977E+05, 2.42692E+05, 2.41927E+05                                          t=22.8  FairTen 1: 2.56407E+05, 2.45977E+05, 2.42692E+05                                          t=23  FairTen 1: 2.52127E+05, 2.56407E+05, 2.45977E+05                                            t=23.2  FairTen 1: 2.51063E+05, 2.52127E+05, 2.56407E+05                                          t=23.4  FairTen 1: 2.53685E+05, 2.51063E+05, 2.52127E+05                                          t=23.6  FairTen 1: 2.55876E+05, 2.53685E+05, 2.51063E+05                                          t=23.8  FairTen 1: 2.56749E+05, 2.55876E+05, 2.53685E+05                                          t=24  FairTen 1: 2.57328E+05, 2.56749E+05, 2.55876E+05                                            t=24.2  FairTen 1: 2.58511E+05, 2.57328E+05, 2.56749E+05                                          t=24.4  FairTen 1: 2.59849E+05, 2.58511E+05, 2.57328E+05                                          t=24.6  FairTen 1: 2.60974E+05, 2.59849E+05, 2.58511E+05                                          t=24.8  FairTen 1: 2.61965E+05, 2.60974E+05, 2.59849E+05                                          t=25  FairTen 1: 2.62996E+05, 2.61965E+05, 2.60974E+05                                            t=25.2  FairTen 1: 2.64064E+05, 2.62996E+05, 2.61965E+05                                          t=25.4  FairTen 1: 2.65099E+05, 2.64064E+05, 2.62996E+05                                          t=25.6  FairTen 1: 2.66091E+05, 2.65099E+05, 2.64064E+05                                          t=25.8  FairTen 1: 2.67069E+05, 2.66091E+05, 2.65099E+05                                          t=26  FairTen 1: 2.67997E+05, 2.67069E+05, 2.66091E+05                                            t=26.2  FairTen 1: 2.30050E+05, 2.67997E+05, 2.67069E+05                                          t=26.4  FairTen 1: 2.50083E+05, 2.30050E+05, 2.67997E+05                                          t=26.6  FairTen 1: 2.56583E+05, 2.50083E+05, 2.30050E+05                                          t=26.8  FairTen 1: 2.57898E+05, 2.56583E+05, 2.50083E+05                                          t=27  FairTen 1: 2.54634E+05, 2.57898E+05, 2.56583E+05                                            t=27.2  FairTen 1: 2.67804E+05, 2.54634E+05, 2.57898E+05                                          t=27.4  FairTen 1: 2.65656E+05, 2.67804E+05, 2.54634E+05                                          t=27.6  FairTen 1: 2.65523E+05, 2.65656E+05, 2.67804E+05                                          t=27.8  FairTen 1: 2.65092E+05, 2.65523E+05, 2.65656E+05                                          t=28  FairTen 1: 2.67314E+05, 2.65092E+05, 2.65523E+05                                            t=28.2  FairTen 1: 2.68890E+05, 2.67314E+05, 2.65092E+05                                          t=28.4  FairTen 1: 2.69953E+05, 2.68890E+05, 2.67314E+05                                          t=28.6  FairTen 1: 2.70890E+05, 2.69953E+05, 2.68890E+05                                          t=28.8  FairTen 1: 2.72112E+05, 2.70890E+05, 2.69953E+05                                          t=29  FairTen 1: 2.73417E+05, 2.72112E+05, 2.70890E+05                                            t=29.2  FairTen 1: 2.74651E+05, 2.73417E+05, 2.72112E+05                                          t=29.4  FairTen 1: 2.75825E+05, 2.74651E+05, 2.73417E+05                                          t=29.6  FairTen 1: 2.77004E+05, 2.75825E+05, 2.74651E+05                                          t=29.8  FairTen 1: 2.78194E+05, 2.77004E+05, 2.75825E+05                                          t=30  FairTen 1: 2.79369E+05, 2.78194E+05, 2.77004E+05                                            t=30.2  FairTen 1: 2.80519E+05, 2.79369E+05, 2.78194E+05                                          t=30.4  FairTen 1: 2.81660E+05, 2.80519E+05, 2.79369E+05                                          t=30.6  FairTen 1: 3.01377E+05, 2.81660E+05, 2.80519E+05                                          t=30.8  FairTen 1: 2.97563E+05, 3.01377E+05, 2.81660E+05                                          t=31  FairTen 1: 2.95749E+05, 2.97563E+05, 3.01377E+05                                            t=31.2  FairTen 1: 2.94891E+05, 2.95749E+05, 2.97563E+05                                          t=31.4  FairTen 1: 2.97993E+05, 2.94891E+05, 2.95749E+05                                          t=31.6  FairTen 1: 3.00106E+05, 2.97993E+05, 2.94891E+05                                          t=31.8  FairTen 1: 3.01359E+05, 3.00106E+05, 2.97993E+05                                          t=32  FairTen 1: 2.97845E+05, 3.01359E+05, 3.00106E+05                                            t=32.2  FairTen 1: 2.57659E+05, 2.97845E+05, 3.01359E+05                                          t=32.4  FairTen 1: 2.96591E+05, 2.57659E+05, 2.97845E+05                                          t=32.6  FairTen 1: 3.08516E+05, 2.96591E+05, 2.57659E+05                                          t=32.8  FairTen 1: 3.07872E+05, 3.08516E+05, 2.96591E+05                                          t=33  FairTen 1: 3.03751E+05, 3.07872E+05, 3.08516E+05                                            t=33.2  FairTen 1: 3.04640E+05, 3.03751E+05, 3.07872E+05                                          t=33.4  FairTen 1: 3.11437E+05, 3.04640E+05, 3.03751E+05                                          t=33.6  FairTen 1: 3.58944E+05, 3.11437E+05, 3.04640E+05                                          t=33.8  FairTen 1: 4.43643E+05, 3.58944E+05, 3.11437E+05                                          t=34  FairTen 1: 5.07722E+05, 4.43643E+05, 3.58944E+05                                            t=34.2  FairTen 1: 4.89021E+05, 5.07722E+05, 4.43643E+05                                          t=34.4  FairTen 1: 5.03107E+05, 4.89021E+05, 5.07722E+05                                          t=34.6  FairTen 1: 5.10267E+05, 5.03107E+05, 4.89021E+05                                          t=34.8  FairTen 1: 4.86781E+05, 5.10267E+05, 5.03107E+05                                          t=35  FairTen 1: 4.96022E+05, 4.86781E+05, 5.10267E+05                                            t=35.2  FairTen 1: 5.09248E+05, 4.96022E+05, 4.86781E+05                                          t=35.4  FairTen 1: 5.09991E+05, 5.09248E+05, 4.96022E+05                                          t=35.6  FairTen 1: 5.23551E+05, 5.09991E+05, 5.09248E+05                                          t=35.8  FairTen 1: 5.38321E+05, 5.23551E+05, 5.09991E+05                                          t=36  FairTen 1: 5.44953E+05, 5.38321E+05, 5.23551E+05                                            t=36.2  FairTen 1: 5.55447E+05, 5.44953E+05, 5.38321E+05                                          t=36.4  FairTen 1: 5.67049E+05, 5.55447E+05, 5.44953E+05                                          t=36.6  FairTen 1: 5.74840E+05, 5.67049E+05, 5.55447E+05                                          t=36.8  FairTen 1: 5.84685E+05, 5.74840E+05, 5.67049E+05                                          t=37  FairTen 1: 5.96367E+05, 5.84685E+05, 5.74840E+05                                            t=37.2  FairTen 1: 6.06789E+05, 5.96367E+05, 5.84685E+05                                          t=37.4  FairTen 1: 6.18148E+05, 6.06789E+05, 5.96367E+05                                          t=37.6  FairTen 1: 6.30575E+05, 6.18148E+05, 6.06789E+05                                          t=37.8  FairTen 1: 6.42183E+05, 6.30575E+05, 6.18148E+05                                          t=38  FairTen 1: 6.53791E+05, 6.42183E+05, 6.30575E+05                                            t=38.2  FairTen 1: 6.65818E+05, 6.53791E+05, 6.42183E+05                                          t=38.4  FairTen 1: 6.77389E+05, 6.65818E+05, 6.53791E+05                                          t=38.6  FairTen 1: 6.88871E+05, 6.77389E+05, 6.65818E+05                                          t=38.8  FairTen 1: 7.00699E+05, 6.88871E+05, 6.77389E+05                                          t=39  FairTen 1: 7.12467E+05, 7.00699E+05, 6.88871E+05                                            t=39.2  FairTen 1: 7.24237E+05, 7.12467E+05, 7.00699E+05                                          t=39.4  FairTen 1: 7.36264E+05, 7.24237E+05, 7.12467E+05                                          t=39.6  FairTen 1: 7.48366E+05, 7.36264E+05, 7.24237E+05                                          t=39.8  FairTen 1: 7.60517E+05, 7.48366E+05, 7.36264E+05                                          t=40  FairTen 1: 7.72878E+05, 7.60517E+05, 7.48366E+05                                            t=40.2  FairTen 1: 7.85379E+05, 7.72878E+05, 7.60517E+05                                          t=40.4  FairTen 1: 7.97950E+05, 7.85379E+05, 7.72878E+05                                          t=40.6  FairTen 1: 8.10636E+05, 7.97950E+05, 7.85379E+05                                          t=40.8  FairTen 1: 8.23382E+05, 8.10636E+05, 7.97950E+05                                          t=41  FairTen 1: 8.36112E+05, 8.23382E+05, 8.10636E+05                                            t=41.2  FairTen 1: 8.48836E+05, 8.36112E+05, 8.23382E+05                                          t=41.4  FairTen 1: 8.61540E+05, 8.48836E+05, 8.36112E+05                                          t=41.6  FairTen 1: 8.74184E+05, 8.61540E+05, 8.48836E+05                                          t=41.8  FairTen 1: 8.86764E+05, 8.74184E+05, 8.61540E+05                                          t=42  FairTen 1: 8.99265E+05, 8.86764E+05, 8.74184E+05                                            t=42.2  FairTen 1: 9.11637E+05, 8.99265E+05, 8.86764E+05                                          t=42.4  FairTen 1: 9.23839E+05, 9.11637E+05, 8.99265E+05                                          t=42.6  FairTen 1: 9.35831E+05, 9.23839E+05, 9.11637E+05                                          t=42.8  FairTen 1: 9.47555E+05, 9.35831E+05, 9.23839E+05                                          t=43  FairTen 1: 9.58965E+05, 9.47555E+05, 9.35831E+05                                            t=43.2  FairTen 1: 9.70027E+05, 9.58965E+05, 9.47555E+05                                          t=43.4  FairTen 1: 9.80702E+05, 9.70027E+05, 9.58965E+05                                          t=43.6  FairTen 1: 9.90950E+05, 9.80702E+05, 9.70027E+05                                          t=43.8  FairTen 1: 1.00074E+06, 9.90950E+05, 9.80702E+05                                          t=44  FairTen 1: 1.01001E+06, 1.00074E+06, 9.90950E+05                                            t=44.2  FairTen 1: 1.01872E+06, 1.01001E+06, 1.00074E+06                                          t=44.4  FairTen 1: 1.02681E+06, 1.01872E+06, 1.01001E+06                                          t=44.6  FairTen 1: 1.03422E+06, 1.02681E+06, 1.01872E+06                                          t=44.8  FairTen 1: 1.04091E+06, 1.03422E+06, 1.02681E+06                                          t=45  FairTen 1: 1.04684E+06, 1.04091E+06, 1.03422E+06                                            t=45.2  FairTen 1: 1.05198E+06, 1.04684E+06, 1.04091E+06                                          t=45.4  FairTen 1: 1.05631E+06, 1.05198E+06, 1.04684E+06                                          t=45.6  FairTen 1: 1.05984E+06, 1.05631E+06, 1.05198E+06                                          t=45.8  FairTen 1: 1.06258E+06, 1.05984E+06, 1.05631E+06                                          t=46  FairTen 1: 1.06455E+06, 1.06258E+06, 1.05984E+06                                            t=46.2  FairTen 1: 1.06579E+06, 1.06455E+06, 1.06258E+06                                          t=46.4  FairTen 1: 1.06638E+06, 1.06579E+06, 1.06455E+06                                          t=46.6  FairTen 1: 1.06638E+06, 1.06638E+06, 1.06579E+06                                          t=46.8  FairTen 1: 1.06589E+06, 1.06638E+06, 1.06638E+06                                          t=47  FairTen 1: 1.06501E+06, 1.06589E+06, 1.06638E+06                                            t=47.2  FairTen 1: 1.06384E+06, 1.06501E+06, 1.06589E+06                                       
    Fairlead tensions converged to 1% after 47.2 seconds.
    Fairlead tension: 1.06384E+06
    Fairlead forces: 4.30679E+05, 7.51890E+05, -6.17199E+05
    Fairlead tension: 1.20315E+06
    Fairlead forces: -1.00321E+06, 0, -6.64183E+05
    Fairlead tension: 1.06384E+06
    Fairlead forces: 4.30679E+05, -7.51890E+05, -6.17199E+05
    MoorDyn initialization completed.
 Running ServoDyn.
 Running StrucCtrl.
 Running StrucCtrl.
 Running StrucCtrl.
 Running StrucCtrl.
 Running StrucCtrl.

 FAST_InitializeAll:SeaSt_Init:SeaStateInput_ProcessInitData:WvLowCOff adjusted to 3.49066E-02
 rad/s, based on WaveDT.

  Time: 0 of 90 seconds.
                                                                                                   Time: 1 of 90 seconds.  Estimated final completion at 22:06:52.                                                                                                                                     Time: 2 of 90 seconds.  Estimated final completion at 22:06:41.                                                                                                                                     Time: 3 of 90 seconds.  Estimated final completion at 22:06:37.                                  
 FAST_Solution:FAST_AdvanceStates:ED_ABM4:ED_CalcContStateDeriv:SetCoordSy:Small angle assumption
 violated in SUBROUTINE SmllRotTrans() due to a large blade deflection (ElastoDyn SetCoordSy). The
 solution may be inaccurate. Simulation continuing, but future warnings from SmllRotTrans() will
 be suppressed.
  Additional debugging message from SUBROUTINE SmllRotTrans(): 3.4 s

                                                                                                   Time: 4 of 90 seconds.  Estimated final completion at 22:06:37.                                                                                                                                     Time: 5 of 90 seconds.  Estimated final completion at 22:06:38.                                                                                                                                     Time: 6 of 90 seconds.  Estimated final completion at 22:06:37.                                                                                                                                     Time: 7 of 90 seconds.  Estimated final completion at 22:06:38.                                                                                                                                     Time: 8 of 90 seconds.  Estimated final completion at 22:06:37.                                                                                                                                     Time: 9 of 90 seconds.  Estimated final completion at 22:06:38.                                                                                                                                     Time: 10 of 90 seconds.  Estimated final completion at 22:06:39.                                                                                                                                    Time: 11 of 90 seconds.  Estimated final completion at 22:06:41.                                                                                                                                    Time: 12 of 90 seconds.  Estimated final completion at 22:06:40.                                                                                                                                    Time: 13 of 90 seconds.  Estimated final completion at 22:06:41.                                                                                                                                    Time: 14 of 90 seconds.  Estimated final completion at 22:06:47.                                                                                                                                    Time: 15 of 90 seconds.  Estimated final completion at 22:06:41.                                                                                                                                    Time: 16 of 90 seconds.  Estimated final completion at 22:06:39.                                                                                                                                    Time: 17 of 90 seconds.  Estimated final completion at 22:06:40.                                                                                                                                    Time: 18 of 90 seconds.  Estimated final completion at 22:06:39.                                                                                                                                    Time: 19 of 90 seconds.  Estimated final completion at 22:06:41.                                                                                                                                    Time: 20 of 90 seconds.  Estimated final completion at 22:06:40.                                                                                                                                    Time: 21 of 90 seconds.  Estimated final completion at 22:06:42.                                                                                                                                    Time: 22 of 90 seconds.  Estimated final completion at 22:06:43.                                                                                                                                    Time: 23 of 90 seconds.  Estimated final completion at 22:06:42.                                                                                                                                    Time: 24 of 90 seconds.  Estimated final completion at 22:06:47.                                                                                                                                    Time: 25 of 90 seconds.  Estimated final completion at 22:06:42.                                                                                                                                    Time: 26 of 90 seconds.  Estimated final completion at 22:06:46.                                                                                                                                    Time: 27 of 90 seconds.  Estimated final completion at 22:06:43.                                                                                                                                    Time: 28 of 90 seconds.  Estimated final completion at 22:06:42.                                                                                                                                    Time: 29 of 90 seconds.  Estimated final completion at 22:06:42.                                                                                                                                    Time: 30 of 90 seconds.  Estimated final completion at 22:06:44.                                                                                                                                    Time: 31 of 90 seconds.  Estimated final completion at 22:06:45.                                                                                                                                    Time: 32 of 90 seconds.  Estimated final completion at 22:06:48.                                                                                                                                    Time: 33 of 90 seconds.  Estimated final completion at 22:06:46.                                                                                                                                    Time: 34 of 90 seconds.  Estimated final completion at 22:06:49.                                                                                                                                    Time: 35 of 90 seconds.  Estimated final completion at 22:06:51.                                                                                                                                    Time: 36 of 90 seconds.  Estimated final completion at 22:06:45.                                                                                                                                    Time: 37 of 90 seconds.  Estimated final completion at 22:06:51.                                                                                                                                    Time: 38 of 90 seconds.  Estimated final completion at 22:06:49.                                                                                                                                    Time: 39 of 90 seconds.  Estimated final completion at 22:06:45.                                                                                                                                    Time: 40 of 90 seconds.  Estimated final completion at 22:06:45.                                                                                                                                    Time: 41 of 90 seconds.  Estimated final completion at 22:06:44.                                                                                                                                    Time: 42 of 90 seconds.  Estimated final completion at 22:06:44.                                                                                                                                    Time: 43 of 90 seconds.  Estimated final completion at 22:06:45.                                                                                                                                    Time: 44 of 90 seconds.  Estimated final completion at 22:06:44.                                                                                                                                    Time: 45 of 90 seconds.  Estimated final completion at 22:06:44.                                                                                                                                    Time: 46 of 90 seconds.  Estimated final completion at 22:06:44.                                                                                                                                    Time: 47 of 90 seconds.  Estimated final completion at 22:06:44.                                                                                                                                    Time: 48 of 90 seconds.  Estimated final completion at 22:06:44.                                                                                                                                    Time: 49 of 90 seconds.  Estimated final completion at 22:06:45.                                                                                                                                    Time: 50 of 90 seconds.  Estimated final completion at 22:06:44.                                                                                                                                    Time: 51 of 90 seconds.  Estimated final completion at 22:06:45.                                                                                                                                    Time: 52 of 90 seconds.  Estimated final completion at 22:06:45.                                                                                                                                    Time: 53 of 90 seconds.  Estimated final completion at 22:06:45.                                                                                                                                    Time: 54 of 90 seconds.  Estimated final completion at 22:06:45.                                                                                                                                    Time: 55 of 90 seconds.  Estimated final completion at 22:06:45.                                                                                                                                    Time: 56 of 90 seconds.  Estimated final completion at 22:06:45.                                                                                                                                    Time: 57 of 90 seconds.  Estimated final completion at 22:06:45.                                                                                                                                    Time: 58 of 90 seconds.  Estimated final completion at 22:06:45.                                                                                                                                    Time: 59 of 90 seconds.  Estimated final completion at 22:06:45.                                                                                                                                    Time: 60 of 90 seconds.  Estimated final completion at 22:06:45.                                                                                                                                    Time: 61 of 90 seconds.  Estimated final completion at 22:06:45.                                                                                                                                    Time: 62 of 90 seconds.  Estimated final completion at 22:06:45.                                                                                                                                    Time: 63 of 90 seconds.  Estimated final completion at 22:06:45.                                                                                                                                    Time: 64 of 90 seconds.  Estimated final completion at 22:06:45.                                                                                                                                    Time: 65 of 90 seconds.  Estimated final completion at 22:06:45.                                                                                                                                    Time: 66 of 90 seconds.  Estimated final completion at 22:06:45.                                                                                                                                    Time: 67 of 90 seconds.  Estimated final completion at 22:06:45.                                                                                                                                    Time: 68 of 90 seconds.  Estimated final completion at 22:06:45.                                                                                                                                    Time: 69 of 90 seconds.  Estimated final completion at 22:06:45.                                                                                                                                    Time: 70 of 90 seconds.  Estimated final completion at 22:06:45.                                                                                                                                    Time: 71 of 90 seconds.  Estimated final completion at 22:06:45.                                                                                                                                    Time: 72 of 90 seconds.  Estimated final completion at 22:06:45.                                                                                                                                    Time: 73 of 90 seconds.  Estimated final completion at 22:06:45.                                                                                                                                    Time: 74 of 90 seconds.  Estimated final completion at 22:06:45.                                                                                                                                    Time: 75 of 90 seconds.  Estimated final completion at 22:06:45.                                                                                                                                    Time: 76 of 90 seconds.  Estimated final completion at 22:06:45.                                                                                                                                    Time: 77 of 90 seconds.  Estimated final completion at 22:06:45.                                                                                                                                    Time: 78 of 90 seconds.  Estimated final completion at 22:06:45.                                                                                                                                    Time: 79 of 90 seconds.  Estimated final completion at 22:06:45.                                                                                                                                    Time: 80 of 90 seconds.  Estimated final completion at 22:06:45.                                                                                                                                    Time: 81 of 90 seconds.  Estimated final completion at 22:06:45.                                                                                                                                    Time: 82 of 90 seconds.  Estimated final completion at 22:06:45.                                                                                                                                    Time: 83 of 90 seconds.  Estimated final completion at 22:06:45.                                                                                                                                    Time: 84 of 90 seconds.  Estimated final completion at 22:06:45.                                                                                                                                    Time: 85 of 90 seconds.  Estimated final completion at 22:06:45.                                                                                                                                    Time: 86 of 90 seconds.  Estimated final completion at 22:06:45.                                                                                                                                    Time: 87 of 90 seconds.  Estimated final completion at 22:06:45.                                                                                                                                    Time: 88 of 90 seconds.  Estimated final completion at 22:06:45.                                                                                                                                    Time: 89 of 90 seconds.  Estimated final completion at 22:06:45.                                                                                                                                    Time: 90 of 90 seconds.  Estimated final completion at 22:06:45.                                                                                                                                   
  Total Real Time:       44.417 seconds
  Total CPU Time:        44.024 seconds
  Simulation CPU Time:   41.691 seconds
  Simulated Time:        90 seconds
  Time Ratio (Sim/CPU):  2.1587

  OpenFAST terminated normally.

