
 **************************************************************************************************
 MoorDyn Driver

 Copyright (C) 2023 National Renewable Energy Laboratory
 Copyright (C) 2023 Envision Energy USA LTD

 Copyright (C) 2021 NREL, 2019 Matt Hall

 This program is licensed under Apache License Version 2.0 and comes with ABSOLUTELY NO WARRANTY.
 See the "LICENSE" file distributed with this software for details.
 **************************************************************************************************

  Running MoorDyn Driver a part of OpenFAST - v3.5.0-86-g378154c6
  linked with NWTC Subroutine Library

  MD Driver updated 2022-01-12
 Opening MoorDyn Driver input file:
 /Users/aplatt/software-development/GitHub/openfast/build/reg_tests/modules/moordyn/md_Single_Line_
 Quasi_Static_Test/md_driver.inp
 Running MoorDyn (v2.0.0, 2023-09-18).
    This is MoorDyn v2, with significant input file changes from v1.
    Copyright: (C) 2023 National Renewable Energy Laboratory, (C) 2019 Matt Hall
    Parsing MoorDyn input file: test.dat
   Created mooring system:  1 lines, 2 points, 0 rods, 0 bodies.
    Catenary solve of Line 1 unsuccessful. Initializing as linear.
    Finalizing initial conditions using dynamic relaxation.

   t=1  FairTen 1: 3.82498E+05, 1, 2                                                                 t=2  FairTen 1: 4.32038E+05, 3.82498E+05, 1                                                       t=3  FairTen 1: 4.50636E+05, 4.32038E+05, 3.82498E+05                                             t=4  FairTen 1: 4.65024E+05, 4.50636E+05, 4.32038E+05                                             t=5  FairTen 1: 4.77879E+05, 4.65024E+05, 4.50636E+05                                             t=6  FairTen 1: 4.89570E+05, 4.77879E+05, 4.65024E+05                                             t=7  FairTen 1: 5.00253E+05, 4.89570E+05, 4.77879E+05                                             t=8  FairTen 1: 5.96021E+05, 5.00253E+05, 4.89570E+05                                             t=9  FairTen 1: 6.95430E+05, 5.96021E+05, 5.00253E+05                                             t=10  FairTen 1: 6.85591E+05, 6.95430E+05, 5.96021E+05                                            t=11  FairTen 1: 7.73337E+05, 6.85591E+05, 6.95430E+05                                            t=12  FairTen 1: 9.16190E+05, 7.73337E+05, 6.85591E+05                                            t=13  FairTen 1: 8.61167E+05, 9.16190E+05, 7.73337E+05                                            t=14  FairTen 1: 9.01269E+05, 8.61167E+05, 9.16190E+05                                            t=15  FairTen 1: 1.11063E+06, 9.01269E+05, 8.61167E+05                                            t=16  FairTen 1: 1.01830E+06, 1.11063E+06, 9.01269E+05                                            t=17  FairTen 1: 1.19736E+06, 1.01830E+06, 1.11063E+06                                            t=18  FairTen 1: 1.12710E+06, 1.19736E+06, 1.01830E+06                                            t=19  FairTen 1: 1.20979E+06, 1.12710E+06, 1.19736E+06                                            t=20  FairTen 1: 1.21066E+06, 1.20979E+06, 1.12710E+06                                            t=21  FairTen 1: 1.29338E+06, 1.21066E+06, 1.20979E+06                                            t=22  FairTen 1: 1.29247E+06, 1.29338E+06, 1.21066E+06                                            t=23  FairTen 1: 1.40609E+06, 1.29247E+06, 1.29338E+06                                            t=24  FairTen 1: 1.36409E+06, 1.40609E+06, 1.29247E+06                                            t=25  FairTen 1: 1.56403E+06, 1.36409E+06, 1.40609E+06                                            t=26  FairTen 1: 1.43727E+06, 1.56403E+06, 1.36409E+06                                            t=27  FairTen 1: 1.41990E+06, 1.43727E+06, 1.56403E+06                                            t=28  FairTen 1: 1.54984E+06, 1.41990E+06, 1.43727E+06                                            t=29  FairTen 1: 1.47401E+06, 1.54984E+06, 1.41990E+06                                            t=30  FairTen 1: 1.52177E+06, 1.47401E+06, 1.54984E+06                                            t=31  FairTen 1: 1.52732E+06, 1.52177E+06, 1.47401E+06                                            t=32  FairTen 1: 1.61865E+06, 1.52732E+06, 1.52177E+06                                            t=33  FairTen 1: 1.58268E+06, 1.61865E+06, 1.52732E+06                                            t=34  FairTen 1: 1.62910E+06, 1.58268E+06, 1.61865E+06                                            t=35  FairTen 1: 1.63413E+06, 1.62910E+06, 1.58268E+06                                            t=36  FairTen 1: 1.52429E+06, 1.63413E+06, 1.62910E+06                                            t=37  FairTen 1: 1.64360E+06, 1.52429E+06, 1.63413E+06                                            t=38  FairTen 1: 1.62249E+06, 1.64360E+06, 1.52429E+06                                            t=39  FairTen 1: 1.64539E+06, 1.62249E+06, 1.64360E+06                                            t=40  FairTen 1: 1.66270E+06, 1.64539E+06, 1.62249E+06                                            t=41  FairTen 1: 1.67540E+06, 1.66270E+06, 1.64539E+06                                            t=42  FairTen 1: 1.69119E+06, 1.67540E+06, 1.66270E+06                                            t=43  FairTen 1: 1.70459E+06, 1.69119E+06, 1.67540E+06                                            t=44  FairTen 1: 1.71816E+06, 1.70459E+06, 1.69119E+06                                            t=45  FairTen 1: 1.73134E+06, 1.71816E+06, 1.70459E+06                                            t=46  FairTen 1: 1.79658E+06, 1.73134E+06, 1.71816E+06                                            t=47  FairTen 1: 1.65924E+06, 1.79658E+06, 1.73134E+06                                            t=48  FairTen 1: 1.73285E+06, 1.65924E+06, 1.79658E+06                                            t=49  FairTen 1: 1.72085E+06, 1.73285E+06, 1.65924E+06                                            t=50  FairTen 1: 1.73736E+06, 1.72085E+06, 1.73285E+06                                            t=51  FairTen 1: 1.75464E+06, 1.73736E+06, 1.72085E+06                                            t=52  FairTen 1: 1.76876E+06, 1.75464E+06, 1.73736E+06                                            t=53  FairTen 1: 1.78435E+06, 1.76876E+06, 1.75464E+06                                            t=54  FairTen 1: 1.79859E+06, 1.78435E+06, 1.76876E+06                                            t=55  FairTen 1: 1.81243E+06, 1.79859E+06, 1.78435E+06                                            t=56  FairTen 1: 1.82594E+06, 1.81243E+06, 1.79859E+06                                            t=57  FairTen 1: 1.83902E+06, 1.82594E+06, 1.81243E+06                                             Fairlead tensions converged to 1% after 57 seconds.
    Fairlead tension: 1.83902E+06
    Fairlead forces: 1.05774E+06, 0, -1.50439E+06
    MoorDyn initialization completed.
 Running MoorDyn (v2.0.0, 2023-09-18).
 MoorDyn has 0 coupled DOFs and/or active-tensioned inputs.

 Tmax - 60 and nt=4799

 Doing time marching now...
  Time: 0 of 60 seconds.
                                                                                                   Time: 0 of 60 seconds.  Estimated final completion at 10:39:06.                                                                                                                                     Time: 0 of 60 seconds.  Estimated final completion at 10:39:05.                                                                                                                                     Time: 1 of 60 seconds.  Estimated final completion at 10:39:03.                                                                                                                                     Time: 1 of 60 seconds.  Estimated final completion at 10:39:03.                                                                                                                                     Time: 1 of 60 seconds.  Estimated final completion at 10:39:03.                                                                                                                                     Time: 1 of 60 seconds.  Estimated final completion at 10:39:03.                                                                                                                                     Time: 2 of 60 seconds.  Estimated final completion at 10:39:02.                                                                                                                                     Time: 2 of 60 seconds.  Estimated final completion at 10:39:04.                                                                                                                                     Time: 2 of 60 seconds.  Estimated final completion at 10:39:04.                                                                                                                                     Time: 2 of 60 seconds.  Estimated final completion at 10:39:02.                                                                                                                                     Time: 3 of 60 seconds.  Estimated final completion at 10:39:03.                                                                                                                                     Time: 3 of 60 seconds.  Estimated final completion at 10:39:05.                                                                                                                                     Time: 3 of 60 seconds.  Estimated final completion at 10:39:04.                                                                                                                                     Time: 3 of 60 seconds.  Estimated final completion at 10:39:06.                                                                                                                                     Time: 4 of 60 seconds.  Estimated final completion at 10:39:12.                                                                                                                                     Time: 4 of 60 seconds.  Estimated final completion at 10:39:11.                                                                                                                                     Time: 4 of 60 seconds.  Estimated final completion at 10:39:06.                                                                                                                                     Time: 4 of 60 seconds.  Estimated final completion at 10:39:06.                                                                                                                                     Time: 5 of 60 seconds.  Estimated final completion at 10:39:10.                                                                                                                                     Time: 5 of 60 seconds.  Estimated final completion at 10:39:34.                                                                                                                                     Time: 5 of 60 seconds.  Estimated final completion at 10:39:13.                                                                                                                                     Time: 5 of 60 seconds.  Estimated final completion at 10:39:11.                                                                                                                                     Time: 6 of 60 seconds.  Estimated final completion at 10:39:09.                                                                                                                                     Time: 6 of 60 seconds.  Estimated final completion at 10:39:11.                                                                                                                                     Time: 6 of 60 seconds.  Estimated final completion at 10:39:09.                                                                                                                                     Time: 6 of 60 seconds.  Estimated final completion at 10:39:10.                                                                                                                                     Time: 7 of 60 seconds.  Estimated final completion at 10:39:10.                                                                                                                                     Time: 7 of 60 seconds.  Estimated final completion at 10:39:12.                                                                                                                                     Time: 7 of 60 seconds.  Estimated final completion at 10:39:11.                                                                                                                                     Time: 7 of 60 seconds.  Estimated final completion at 10:39:12.                                                                                                                                     Time: 8 of 60 seconds.  Estimated final completion at 10:39:10.                                                                                                                                     Time: 8 of 60 seconds.  Estimated final completion at 10:39:10.                                                                                                                                     Time: 8 of 60 seconds.  Estimated final completion at 10:39:11.                                                                                                                                     Time: 8 of 60 seconds.  Estimated final completion at 10:39:11.                                                                                                                                     Time: 9 of 60 seconds.  Estimated final completion at 10:39:15.                                                                                                                                     Time: 9 of 60 seconds.  Estimated final completion at 10:39:13.                                                                                                                                     Time: 9 of 60 seconds.  Estimated final completion at 10:39:14.                                                                                                                                     Time: 9 of 60 seconds.  Estimated final completion at 10:39:13.                                                                                                                                     Time: 10 of 60 seconds.  Estimated final completion at 10:39:11.                                                                                                                                    Time: 10 of 60 seconds.  Estimated final completion at 10:39:11.                                                                                                                                    Time: 10 of 60 seconds.  Estimated final completion at 10:39:13.                                                                                                                                    Time: 10 of 60 seconds.  Estimated final completion at 10:39:14.                                                                                                                                    Time: 11 of 60 seconds.  Estimated final completion at 10:39:16.                                                                                                                                    Time: 11 of 60 seconds.  Estimated final completion at 10:39:18.                                                                                                                                    Time: 11 of 60 seconds.  Estimated final completion at 10:39:16.                                                                                                                                    Time: 11 of 60 seconds.  Estimated final completion at 10:39:11.                                                                                                                                    Time: 12 of 60 seconds.  Estimated final completion at 10:39:10.                                                                                                                                    Time: 12 of 60 seconds.  Estimated final completion at 10:39:10.                                                                                                                                    Time: 12 of 60 seconds.  Estimated final completion at 10:39:12.                                                                                                                                    Time: 12 of 60 seconds.  Estimated final completion at 10:39:12.                                                                                                                                    Time: 13 of 60 seconds.  Estimated final completion at 10:39:13.                                                                                                                                    Time: 13 of 60 seconds.  Estimated final completion at 10:39:09.                                                                                                                                    Time: 13 of 60 seconds.  Estimated final completion at 10:39:14.                                                                                                                                    Time: 13 of 60 seconds.  Estimated final completion at 10:39:10.                                                                                                                                    Time: 14 of 60 seconds.  Estimated final completion at 10:39:10.                                                                                                                                    Time: 14 of 60 seconds.  Estimated final completion at 10:39:08.                                                                                                                                    Time: 14 of 60 seconds.  Estimated final completion at 10:39:08.                                                                                                                                    Time: 14 of 60 seconds.  Estimated final completion at 10:39:08.                                                                                                                                    Time: 15 of 60 seconds.  Estimated final completion at 10:39:09.                                                                                                                                    Time: 15 of 60 seconds.  Estimated final completion at 10:39:08.                                                                                                                                    Time: 15 of 60 seconds.  Estimated final completion at 10:39:07.                                                                                                                                    Time: 15 of 60 seconds.  Estimated final completion at 10:39:10.                                                                                                                                    Time: 16 of 60 seconds.  Estimated final completion at 10:39:09.                                                                                                                                    Time: 16 of 60 seconds.  Estimated final completion at 10:39:10.                                                                                                                                    Time: 16 of 60 seconds.  Estimated final completion at 10:39:09.                                                                                                                                    Time: 16 of 60 seconds.  Estimated final completion at 10:39:10.                                                                                                                                    Time: 17 of 60 seconds.  Estimated final completion at 10:39:14.                                                                                                                                    Time: 17 of 60 seconds.  Estimated final completion at 10:39:10.                                                                                                                                    Time: 17 of 60 seconds.  Estimated final completion at 10:39:12.                                                                                                                                    Time: 17 of 60 seconds.  Estimated final completion at 10:39:11.                                                                                                                                    Time: 18 of 60 seconds.  Estimated final completion at 10:39:10.                                                                                                                                    Time: 18 of 60 seconds.  Estimated final completion at 10:39:10.                                                                                                                                    Time: 18 of 60 seconds.  Estimated final completion at 10:39:08.                                                                                                                                    Time: 18 of 60 seconds.  Estimated final completion at 10:39:08.                                                                                                                                    Time: 19 of 60 seconds.  Estimated final completion at 10:39:07.                                                                                                                                    Time: 19 of 60 seconds.  Estimated final completion at 10:39:09.                                                                                                                                    Time: 19 of 60 seconds.  Estimated final completion at 10:39:10.                                                                                                                                    Time: 19 of 60 seconds.  Estimated final completion at 10:39:14.                                                                                                                                    Time: 20 of 60 seconds.  Estimated final completion at 10:39:12.                                                                                                                                    Time: 20 of 60 seconds.  Estimated final completion at 10:39:09.                                                                                                                                    Time: 20 of 60 seconds.  Estimated final completion at 10:39:08.                                                                                                                                    Time: 20 of 60 seconds.  Estimated final completion at 10:39:09.                                                                                                                                    Time: 21 of 60 seconds.  Estimated final completion at 10:39:09.                                                                                                                                    Time: 21 of 60 seconds.  Estimated final completion at 10:39:09.                                                                                                                                    Time: 21 of 60 seconds.  Estimated final completion at 10:39:08.                                                                                                                                    Time: 21 of 60 seconds.  Estimated final completion at 10:39:09.                                                                                                                                    Time: 22 of 60 seconds.  Estimated final completion at 10:39:08.                                                                                                                                    Time: 22 of 60 seconds.  Estimated final completion at 10:39:11.                                                                                                                                    Time: 22 of 60 seconds.  Estimated final completion at 10:39:09.                                                                                                                                    Time: 22 of 60 seconds.  Estimated final completion at 10:39:10.                                                                                                                                    Time: 23 of 60 seconds.  Estimated final completion at 10:39:09.                                                                                                                                    Time: 23 of 60 seconds.  Estimated final completion at 10:39:09.                                                                                                                                    Time: 23 of 60 seconds.  Estimated final completion at 10:39:09.                                                                                                                                    Time: 23 of 60 seconds.  Estimated final completion at 10:39:10.                                                                                                                                    Time: 24 of 60 seconds.  Estimated final completion at 10:39:10.                                                                                                                                    Time: 24 of 60 seconds.  Estimated final completion at 10:39:08.                                                                                                                                    Time: 24 of 60 seconds.  Estimated final completion at 10:39:09.                                                                                                                                    Time: 24 of 60 seconds.  Estimated final completion at 10:39:10.                                                                                                                                    Time: 25 of 60 seconds.  Estimated final completion at 10:39:12.                                                                                                                                    Time: 25 of 60 seconds.  Estimated final completion at 10:39:11.                                                                                                                                    Time: 25 of 60 seconds.  Estimated final completion at 10:39:08.                                                                                                                                    Time: 25 of 60 seconds.  Estimated final completion at 10:39:09.                                                                                                                                    Time: 26 of 60 seconds.  Estimated final completion at 10:39:09.                                                                                                                                    Time: 26 of 60 seconds.  Estimated final completion at 10:39:09.                                                                                                                                    Time: 26 of 60 seconds.  Estimated final completion at 10:39:12.                                                                                                                                    Time: 26 of 60 seconds.  Estimated final completion at 10:39:11.                                                                                                                                    Time: 27 of 60 seconds.  Estimated final completion at 10:39:10.                                                                                                                                    Time: 27 of 60 seconds.  Estimated final completion at 10:39:10.                                                                                                                                    Time: 27 of 60 seconds.  Estimated final completion at 10:39:09.                                                                                                                                    Time: 27 of 60 seconds.  Estimated final completion at 10:39:09.                                                                                                                                    Time: 28 of 60 seconds.  Estimated final completion at 10:39:10.                                                                                                                                    Time: 28 of 60 seconds.  Estimated final completion at 10:39:10.                                                                                                                                    Time: 28 of 60 seconds.  Estimated final completion at 10:39:08.                                                                                                                                    Time: 28 of 60 seconds.  Estimated final completion at 10:39:10.                                                                                                                                    Time: 29 of 60 seconds.  Estimated final completion at 10:39:16.                                                                                                                                    Time: 29 of 60 seconds.  Estimated final completion at 10:39:11.                                                                                                                                    Time: 29 of 60 seconds.  Estimated final completion at 10:39:09.                                                                                                                                    Time: 29 of 60 seconds.  Estimated final completion at 10:39:16.                                                                                                                                    Time: 30 of 60 seconds.  Estimated final completion at 10:39:15.                                                                                                                                    Time: 30 of 60 seconds.  Estimated final completion at 10:39:29.                                                                                                                                    Time: 30 of 60 seconds.  Estimated final completion at 10:39:15.                                                                                                                                    Time: 30 of 60 seconds.  Estimated final completion at 10:39:12.                                                                                                                                    Time: 31 of 60 seconds.  Estimated final completion at 10:39:11.                                                                                                                                    Time: 31 of 60 seconds.  Estimated final completion at 10:39:11.                                                                                                                                    Time: 31 of 60 seconds.  Estimated final completion at 10:39:10.                                                                                                                                    Time: 31 of 60 seconds.  Estimated final completion at 10:39:09.                                                                                                                                    Time: 32 of 60 seconds.  Estimated final completion at 10:39:11.                                                                                                                                    Time: 32 of 60 seconds.  Estimated final completion at 10:39:10.                                                                                                                                    Time: 32 of 60 seconds.  Estimated final completion at 10:39:10.                                                                                                                                    Time: 32 of 60 seconds.  Estimated final completion at 10:39:10.                                                                                                                                    Time: 33 of 60 seconds.  Estimated final completion at 10:39:11.                                                                                                                                    Time: 33 of 60 seconds.  Estimated final completion at 10:39:09.                                                                                                                                    Time: 33 of 60 seconds.  Estimated final completion at 10:39:09.                                                                                                                                    Time: 33 of 60 seconds.  Estimated final completion at 10:39:11.                                                                                                                                    Time: 34 of 60 seconds.  Estimated final completion at 10:39:11.                                                                                                                                    Time: 34 of 60 seconds.  Estimated final completion at 10:39:12.                                                                                                                                    Time: 34 of 60 seconds.  Estimated final completion at 10:39:10.                                                                                                                                    Time: 34 of 60 seconds.  Estimated final completion at 10:39:08.                                                                                                                                    Time: 35 of 60 seconds.  Estimated final completion at 10:39:09.                                                                                                                                    Time: 35 of 60 seconds.  Estimated final completion at 10:39:09.                                                                                                                                    Time: 35 of 60 seconds.  Estimated final completion at 10:39:09.                                                                                                                                    Time: 35 of 60 seconds.  Estimated final completion at 10:39:09.                                                                                                                                    Time: 36 of 60 seconds.  Estimated final completion at 10:39:09.                                                                                                                                    Time: 36 of 60 seconds.  Estimated final completion at 10:39:10.                                                                                                                                    Time: 36 of 60 seconds.  Estimated final completion at 10:39:10.                                                                                                                                    Time: 36 of 60 seconds.  Estimated final completion at 10:39:10.                                                                                                                                    Time: 37 of 60 seconds.  Estimated final completion at 10:39:11.                                                                                                                                    Time: 37 of 60 seconds.  Estimated final completion at 10:39:12.                                                                                                                                    Time: 37 of 60 seconds.  Estimated final completion at 10:39:12.                                                                                                                                    Time: 37 of 60 seconds.  Estimated final completion at 10:39:11.                                                                                                                                    Time: 38 of 60 seconds.  Estimated final completion at 10:39:11.                                                                                                                                    Time: 38 of 60 seconds.  Estimated final completion at 10:39:10.                                                                                                                                    Time: 38 of 60 seconds.  Estimated final completion at 10:39:09.                                                                                                                                    Time: 38 of 60 seconds.  Estimated final completion at 10:39:09.                                                                                                                                    Time: 39 of 60 seconds.  Estimated final completion at 10:39:08.                                                                                                                                    Time: 39 of 60 seconds.  Estimated final completion at 10:39:09.                                                                                                                                    Time: 39 of 60 seconds.  Estimated final completion at 10:39:09.                                                                                                                                    Time: 39 of 60 seconds.  Estimated final completion at 10:39:10.                                                                                                                                    Time: 40 of 60 seconds.  Estimated final completion at 10:39:12.                                                                                                                                    Time: 40 of 60 seconds.  Estimated final completion at 10:39:10.                                                                                                                                    Time: 40 of 60 seconds.  Estimated final completion at 10:39:10.                                                                                                                                    Time: 40 of 60 seconds.  Estimated final completion at 10:39:11.                                                                                                                                    Time: 41 of 60 seconds.  Estimated final completion at 10:39:09.                                                                                                                                    Time: 41 of 60 seconds.  Estimated final completion at 10:39:09.                                                                                                                                    Time: 41 of 60 seconds.  Estimated final completion at 10:39:10.                                                                                                                                    Time: 41 of 60 seconds.  Estimated final completion at 10:39:09.                                                                                                                                    Time: 42 of 60 seconds.  Estimated final completion at 10:39:11.                                                                                                                                    Time: 42 of 60 seconds.  Estimated final completion at 10:39:11.                                                                                                                                    Time: 42 of 60 seconds.  Estimated final completion at 10:39:10.                                                                                                                                    Time: 42 of 60 seconds.  Estimated final completion at 10:39:10.                                                                                                                                    Time: 43 of 60 seconds.  Estimated final completion at 10:39:09.                                                                                                                                    Time: 43 of 60 seconds.  Estimated final completion at 10:39:09.                                                                                                                                    Time: 43 of 60 seconds.  Estimated final completion at 10:39:09.                                                                                                                                    Time: 43 of 60 seconds.  Estimated final completion at 10:39:10.                                                                                                                                    Time: 44 of 60 seconds.  Estimated final completion at 10:39:11.                                                                                                                                    Time: 44 of 60 seconds.  Estimated final completion at 10:39:11.                                                                                                                                    Time: 44 of 60 seconds.  Estimated final completion at 10:39:11.                                                                                                                                    Time: 44 of 60 seconds.  Estimated final completion at 10:39:10.                                                                                                                                    Time: 45 of 60 seconds.  Estimated final completion at 10:39:10.                                                                                                                                    Time: 45 of 60 seconds.  Estimated final completion at 10:39:10.                                                                                                                                    Time: 45 of 60 seconds.  Estimated final completion at 10:39:09.                                                                                                                                    Time: 45 of 60 seconds.  Estimated final completion at 10:39:09.                                                                                                                                    Time: 46 of 60 seconds.  Estimated final completion at 10:39:09.                                                                                                                                    Time: 46 of 60 seconds.  Estimated final completion at 10:39:10.                                                                                                                                    Time: 46 of 60 seconds.  Estimated final completion at 10:39:09.                                                                                                                                    Time: 46 of 60 seconds.  Estimated final completion at 10:39:09.                                                                                                                                    Time: 47 of 60 seconds.  Estimated final completion at 10:39:10.                                                                                                                                    Time: 47 of 60 seconds.  Estimated final completion at 10:39:10.                                                                                                                                    Time: 47 of 60 seconds.  Estimated final completion at 10:39:11.                                                                                                                                    Time: 47 of 60 seconds.  Estimated final completion at 10:39:10.                                                                                                                                    Time: 48 of 60 seconds.  Estimated final completion at 10:39:12.                                                                                                                                    Time: 48 of 60 seconds.  Estimated final completion at 10:39:13.                                                                                                                                    Time: 48 of 60 seconds.  Estimated final completion at 10:39:11.                                                                                                                                    Time: 48 of 60 seconds.  Estimated final completion at 10:39:11.                                                                                                                                    Time: 49 of 60 seconds.  Estimated final completion at 10:39:10.                                                                                                                                    Time: 49 of 60 seconds.  Estimated final completion at 10:39:10.                                                                                                                                    Time: 49 of 60 seconds.  Estimated final completion at 10:39:10.                                                                                                                                    Time: 49 of 60 seconds.  Estimated final completion at 10:39:10.                                                                                                                                    Time: 50 of 60 seconds.  Estimated final completion at 10:39:10.                                                                                                                                    Time: 50 of 60 seconds.  Estimated final completion at 10:39:10.                                                                                                                                    Time: 50 of 60 seconds.  Estimated final completion at 10:39:10.                                                                                                                                    Time: 50 of 60 seconds.  Estimated final completion at 10:39:10.                                                                                                                                    Time: 51 of 60 seconds.  Estimated final completion at 10:39:09.                                                                                                                                    Time: 51 of 60 seconds.  Estimated final completion at 10:39:10.                                                                                                                                    Time: 51 of 60 seconds.  Estimated final completion at 10:39:10.                                                                                                                                    Time: 51 of 60 seconds.  Estimated final completion at 10:39:10.                                                                                                                                    Time: 52 of 60 seconds.  Estimated final completion at 10:39:10.                                                                                                                                    Time: 52 of 60 seconds.  Estimated final completion at 10:39:10.                                                                                                                                    Time: 52 of 60 seconds.  Estimated final completion at 10:39:10.                                                                                                                                    Time: 52 of 60 seconds.  Estimated final completion at 10:39:10.                                                                                                                                    Time: 53 of 60 seconds.  Estimated final completion at 10:39:10.                                                                                                                                    Time: 53 of 60 seconds.  Estimated final completion at 10:39:11.                                                                                                                                    Time: 53 of 60 seconds.  Estimated final completion at 10:39:10.                                                                                                                                    Time: 53 of 60 seconds.  Estimated final completion at 10:39:10.                                                                                                                                    Time: 54 of 60 seconds.  Estimated final completion at 10:39:10.                                                                                                                                    Time: 54 of 60 seconds.  Estimated final completion at 10:39:10.                                                                                                                                    Time: 54 of 60 seconds.  Estimated final completion at 10:39:10.                                                                                                                                    Time: 54 of 60 seconds.  Estimated final completion at 10:39:10.                                                                                                                                    Time: 55 of 60 seconds.  Estimated final completion at 10:39:10.                                                                                                                                    Time: 55 of 60 seconds.  Estimated final completion at 10:39:10.                                                                                                                                    Time: 55 of 60 seconds.  Estimated final completion at 10:39:10.                                                                                                                                    Time: 55 of 60 seconds.  Estimated final completion at 10:39:10.                                                                                                                                    Time: 56 of 60 seconds.  Estimated final completion at 10:39:10.                                                                                                                                    Time: 56 of 60 seconds.  Estimated final completion at 10:39:10.                                                                                                                                    Time: 56 of 60 seconds.  Estimated final completion at 10:39:10.                                                                                                                                    Time: 56 of 60 seconds.  Estimated final completion at 10:39:10.                                                                                                                                    Time: 57 of 60 seconds.  Estimated final completion at 10:39:10.                                                                                                                                    Time: 57 of 60 seconds.  Estimated final completion at 10:39:10.                                                                                                                                    Time: 57 of 60 seconds.  Estimated final completion at 10:39:10.                                                                                                                                    Time: 57 of 60 seconds.  Estimated final completion at 10:39:10.                                                                                                                                    Time: 58 of 60 seconds.  Estimated final completion at 10:39:10.                                                                                                                                    Time: 58 of 60 seconds.  Estimated final completion at 10:39:11.                                                                                                                                    Time: 58 of 60 seconds.  Estimated final completion at 10:39:11.                                                                                                                                    Time: 58 of 60 seconds.  Estimated final completion at 10:39:11.                                                                                                                                    Time: 59 of 60 seconds.  Estimated final completion at 10:39:11.                                                                                                                                    Time: 59 of 60 seconds.  Estimated final completion at 10:39:11.                                                                                                                                    Time: 59 of 60 seconds.  Estimated final completion at 10:39:11.                                                                                                                                    Time: 59 of 60 seconds.  Estimated final completion at 10:39:11.                                                                                                                                    Time: 60 of 60 seconds.  Estimated final completion at 10:39:11.                                                                                                                                   
  Total Real Time:       50.2 seconds
  Total CPU Time:        49.028 seconds
  Simulation CPU Time:   27.136 seconds
  Simulated Time:        59.988 seconds
  Time Ratio (Sim/CPU):  2.2106
 Program has ended
