
**************************************************************************************************
OpenFAST

Copyright (C) 2020 National Renewable Energy Laboratory
Copyright (C) 2020 Envision Energy USA LTD

This program is licensed under Apache License Version 2.0 and comes with ABSOLUTELY NO WARRANTY.
See the "LICENSE" file distributed with this software for details.
**************************************************************************************************

OpenFAST--128-NOTFOUND
Compile Info:
 - Compiler: Intel(R) Fortran Intel(R) 64 Compiler Classic for applications running on Intel(R)
 64, Version 2021.1 Build 20201112_000000
 - Architecture: 64 bit
 - Precision: double
 - Date: Dec 08 2020
 - Time: 23:55:45
Execution Info:
 - Date: 12/09/2020
 - Time: 09:43:54-0600

OpenFAST input file heading:
    FAST Certification Test #26: NREL 5.0 MW Baseline Wind Turbine (Onshore)

Running ElastoDyn.
Nodal outputs section of ElastoDyn input file not found or improperly formatted.
Running BeamDyn.
Nodal outputs section of BeamDyn input file not found or improperly formatted.
Running BeamDyn.
Nodal outputs section of BeamDyn input file not found or improperly formatted.
Running BeamDyn.
Nodal outputs section of BeamDyn input file not found or improperly formatted.
Running AeroDyn.
Nodal output section of AeroDyn input file not found or improperly formatted.
Running BEM.
Warning: Turning off Unsteady Aerodynamics because C_nalpha is 0. BladeNode = 1, Blade = 1
Warning: Turning off Unsteady Aerodynamics because C_nalpha is 0. BladeNode = 2, Blade = 1
Warning: Turning off Unsteady Aerodynamics because C_nalpha is 0. BladeNode = 3, Blade = 1
Warning: Turning off Unsteady Aerodynamics because C_nalpha is 0. BladeNode = 4, Blade = 1
Warning: Turning off Unsteady Aerodynamics because C_nalpha is 0. BladeNode = 1, Blade = 2
Warning: Turning off Unsteady Aerodynamics because C_nalpha is 0. BladeNode = 2, Blade = 2
Warning: Turning off Unsteady Aerodynamics because C_nalpha is 0. BladeNode = 3, Blade = 2
Warning: Turning off Unsteady Aerodynamics because C_nalpha is 0. BladeNode = 4, Blade = 2
Warning: Turning off Unsteady Aerodynamics because C_nalpha is 0. BladeNode = 1, Blade = 3
Warning: Turning off Unsteady Aerodynamics because C_nalpha is 0. BladeNode = 2, Blade = 3
Warning: Turning off Unsteady Aerodynamics because C_nalpha is 0. BladeNode = 3, Blade = 3
Warning: Turning off Unsteady Aerodynamics because C_nalpha is 0. BladeNode = 4, Blade = 3
Running InflowWind.

   Reading a 31x31 grid (145 m wide, 17.5 m to 162.5 m above ground) with a characteristic wind
   speed of 12 m/s. This full-field file was generated by TurbSim (v1.06.00, 21-Sep-2012) on
   07-Jan-2014 at 12:50:45.

   Processed 1442 time steps of 20-Hz full-field data (72.05 seconds).
Running ServoDyn.
Running ServoDyn Interface for Bladed Controllers.
Using legacy Bladed DLL interface.
 Time: 0 of 20 seconds.

FAST_Solution0:CalcOutputs_And_SolveForInputs:SolveOption2:SrvD_CalcOutput:DLL_controller_call:Run
ning with torque and pitch control of the NREL offshore 5MW baseline wind turbine from DISCON.dll
as written by J. Jonkman of NREL/NWTC for use in the IEA Annex XXIII OC3 studies.


FAST_Solution:FAST_AdvanceStates:SrvD_UpdateStates:DLL_controller_call:BladedInterface option was
designed for an explicit-loose coupling scheme. Using last calculated values from DLL on all
subsequent calls until time is advanced. Warning will not be displayed again.
                                                                                                   Time: 1 of 20 seconds. Estimated final completion at 09:47:03.                                                                                                   Time: 2 of 20 seconds. Estimated final completion at 09:46:21.                                                                                                   Time: 3 of 20 seconds. Estimated final completion at 09:46:14.                                                                                                   Time: 4 of 20 seconds. Estimated final completion at 09:46:03.                                                                                                   Time: 5 of 20 seconds. Estimated final completion at 09:46:07.                                                                                                   Time: 6 of 20 seconds. Estimated final completion at 09:46:13.                                                                                                   Time: 7 of 20 seconds. Estimated final completion at 09:46:09.                                                                                                   Time: 8 of 20 seconds. Estimated final completion at 09:46:05.                                                                                                   Time: 9 of 20 seconds. Estimated final completion at 09:46:03.                                                                                                   Time: 10 of 20 seconds. Estimated final completion at 09:46:07.                                                                                                   Time: 11 of 20 seconds. Estimated final completion at 09:45:60.                                                                                                   Time: 12 of 20 seconds. Estimated final completion at 09:45:59.                                                                                                   Time: 13 of 20 seconds. Estimated final completion at 09:45:60.                                                                                                   Time: 14 of 20 seconds. Estimated final completion at 09:46:02.                                                                                                   Time: 15 of 20 seconds. Estimated final completion at 09:46:05.                                                                                                   Time: 16 of 20 seconds. Estimated final completion at 09:46:05.                                                                                                   Time: 17 of 20 seconds. Estimated final completion at 09:46:01.                                                                                                   Time: 18 of 20 seconds. Estimated final completion at 09:46:01.                                                                                                   Time: 19 of 20 seconds. Estimated final completion at 09:46:01.                                                                                                  

 Total Real Time:       2.1028 minutes
 Total CPU Time:        2.0878 minutes
 Simulation CPU Time:   2.0677 minutes
 Simulated Time:        0.33335 minutes
 Time Ratio (Sim/CPU):  0.16122

 OpenFAST terminated normally.

