
**************************************************************************************************
OpenFAST

Copyright (C) 2022 National Renewable Energy Laboratory
Copyright (C) 2022 Envision Energy USA LTD

This program is licensed under Apache License Version 2.0 and comes with ABSOLUTELY NO WARRANTY.
See the "LICENSE" file distributed with this software for details.
**************************************************************************************************

OpenFAST-v3.1.0-243-ge6028eae
Compile Info:
 - Compiler: Intel(R) Fortran Intel(R) 64 Compiler Classic for applications running on Intel(R)
 64, Version 2021.1 Build 20201112_000000
 - Architecture: 64 bit
 - Precision: double
 - OpenMP: No
 - Date: Jul 06 2022
 - Time: 23:27:00
Execution Info:
 - Date: 07/07/2022
 - Time: 15:33:35-0500

OpenFAST input file heading:
    FAST Certification Test #26: NREL 5.0 MW Baseline Wind Turbine (Onshore)

Running ElastoDyn.
Nodal outputs section of ElastoDyn input file not found or improperly formatted.
Running BeamDyn.
Nodal outputs section of BeamDyn input file not found or improperly formatted.
Running BeamDyn.
Nodal outputs section of BeamDyn input file not found or improperly formatted.
Running BeamDyn.
Nodal outputs section of BeamDyn input file not found or improperly formatted.
Running AeroDyn.
AD15 Nodal Outputs: Nodal output section of AeroDyn input file not found or improperly formatted.
Skipping nodal outputs.
Warning: Turning off Unsteady Aerodynamics because UA parameters are not included in airfoil
(airfoil has likely has constant polars). (node 1, blade 1)
Warning: Turning off Unsteady Aerodynamics because UA parameters are not included in airfoil
(airfoil has likely has constant polars). (node 2, blade 1)
Warning: Turning off Unsteady Aerodynamics because UA parameters are not included in airfoil
(airfoil has likely has constant polars). (node 3, blade 1)
Warning: Turning off Unsteady Aerodynamics because UA parameters are not included in airfoil
(airfoil has likely has constant polars). (node 4, blade 1)
Warning: Turning off Unsteady Aerodynamics because UA parameters are not included in airfoil
(airfoil has likely has constant polars). (node 1, blade 2)
Warning: Turning off Unsteady Aerodynamics because UA parameters are not included in airfoil
(airfoil has likely has constant polars). (node 2, blade 2)
Warning: Turning off Unsteady Aerodynamics because UA parameters are not included in airfoil
(airfoil has likely has constant polars). (node 3, blade 2)
Warning: Turning off Unsteady Aerodynamics because UA parameters are not included in airfoil
(airfoil has likely has constant polars). (node 4, blade 2)
Warning: Turning off Unsteady Aerodynamics because UA parameters are not included in airfoil
(airfoil has likely has constant polars). (node 1, blade 3)
Warning: Turning off Unsteady Aerodynamics because UA parameters are not included in airfoil
(airfoil has likely has constant polars). (node 2, blade 3)
Warning: Turning off Unsteady Aerodynamics because UA parameters are not included in airfoil
(airfoil has likely has constant polars). (node 3, blade 3)
Warning: Turning off Unsteady Aerodynamics because UA parameters are not included in airfoil
(airfoil has likely has constant polars). (node 4, blade 3)
Running InflowWind.

   Reading a 31x31 grid (145 m wide, 17.5 m to 162.5 m above ground) with a characteristic wind
   speed of 12 m/s. This full-field file was generated by TurbSim (from
   OpenFAST-v3.0.0-98-g7bde6b54) on 14-Sep-2021 at 11:49:55.

   Processed 1442 time steps of 20-Hz full-field data (72.05 seconds).
Running ServoDyn.
Running ServoDyn Interface for Bladed Controllers (using Intel Visual Fortran for Windows).
Using legacy Bladed DLL interface.
 Time: 0 of 20 seconds.

FAST_Solution:FAST_AdvanceStates:SrvD_UpdateStates:DLL_controller_call:BladedInterface option was
designed for an explicit-loose coupling scheme. Using last calculated values from DLL on all
subsequent calls until time is advanced. Warning will not be displayed again.
                                                                                                   Time: 1 of 20 seconds.  Estimated final completion at 15:36:03.                                                                                                   Time: 2 of 20 seconds.  Estimated final completion at 15:35:59.                                                                                                   Time: 3 of 20 seconds.  Estimated final completion at 15:35:57.                                                                                                   Time: 4 of 20 seconds.  Estimated final completion at 15:35:59.                                                                                                   Time: 5 of 20 seconds.  Estimated final completion at 15:36:03.                                                                                                   Time: 6 of 20 seconds.  Estimated final completion at 15:36:07.                                                                                                   Time: 7 of 20 seconds.  Estimated final completion at 15:36:03.                                                                                                   Time: 8 of 20 seconds.  Estimated final completion at 15:36:06.                                                                                                   Time: 9 of 20 seconds.  Estimated final completion at 15:36:05.                                                                                                   Time: 10 of 20 seconds.  Estimated final completion at 15:36:05.                                                                                                   Time: 11 of 20 seconds.  Estimated final completion at 15:36:02.                                                                                                   Time: 12 of 20 seconds.  Estimated final completion at 15:36:07.                                                                                                   Time: 13 of 20 seconds.  Estimated final completion at 15:36:05.                                                                                                   Time: 14 of 20 seconds.  Estimated final completion at 15:36:07.                                                                                                   Time: 15 of 20 seconds.  Estimated final completion at 15:36:08.                                                                                                   Time: 16 of 20 seconds.  Estimated final completion at 15:36:06.                                                                                                   Time: 17 of 20 seconds.  Estimated final completion at 15:36:05.                                                                                                   Time: 18 of 20 seconds.  Estimated final completion at 15:36:06.                                                                                                   Time: 19 of 20 seconds.  Estimated final completion at 15:36:05.                                                                                                  

 Total Real Time:       2.5121 minutes
 Total CPU Time:        2.5096 minutes
 Simulation CPU Time:   2.493 minutes
 Simulated Time:        0.33335 minutes
 Time Ratio (Sim/CPU):  0.13372

 OpenFAST terminated normally.

