
**************************************************************************************************
OpenFAST

Copyright (C) 2022 National Renewable Energy Laboratory
Copyright (C) 2022 Envision Energy USA LTD

This program is licensed under Apache License Version 2.0 and comes with ABSOLUTELY NO WARRANTY.
See the "LICENSE" file distributed with this software for details.
**************************************************************************************************

OpenFAST-v2.0.0-2968-g7fe8bef2
Compile Info:
 - Compiler: Intel(R) Fortran Intel(R) 64 Compiler Classic for applications running on Intel(R)
 64, Version 2021.1 Build 20201112_000000
 - Architecture: 64 bit
 - Precision: double
 - OpenMP: No
 - Date: Jul 06 2022
 - Time: 12:33:55
Execution Info:
 - Date: 07/06/2022
 - Time: 14:41:08-0500

OpenFAST input file heading:
    FAST Certification Test #26: NREL 5.0 MW Baseline Wind Turbine (Onshore)

Running ElastoDyn.
Nodal outputs section of ElastoDyn input file not found or improperly formatted.
Running BeamDyn.
Nodal outputs section of BeamDyn input file not found or improperly formatted.
Running BeamDyn.
Nodal outputs section of BeamDyn input file not found or improperly formatted.
Running BeamDyn.
Nodal outputs section of BeamDyn input file not found or improperly formatted.
Running AeroDyn.
AD15 Nodal Outputs: Nodal output section of AeroDyn input file not found or improperly formatted.
Skipping nodal outputs.
Warning: Turning off Unsteady Aerodynamics because UA parameters are not included in airfoil
(airfoil has likely has constant polars). (node 1, blade 1)
Warning: Turning off Unsteady Aerodynamics because UA parameters are not included in airfoil
(airfoil has likely has constant polars). (node 2, blade 1)
Warning: Turning off Unsteady Aerodynamics because UA parameters are not included in airfoil
(airfoil has likely has constant polars). (node 3, blade 1)
Warning: Turning off Unsteady Aerodynamics because UA parameters are not included in airfoil
(airfoil has likely has constant polars). (node 4, blade 1)
Warning: Turning off Unsteady Aerodynamics because UA parameters are not included in airfoil
(airfoil has likely has constant polars). (node 1, blade 2)
Warning: Turning off Unsteady Aerodynamics because UA parameters are not included in airfoil
(airfoil has likely has constant polars). (node 2, blade 2)
Warning: Turning off Unsteady Aerodynamics because UA parameters are not included in airfoil
(airfoil has likely has constant polars). (node 3, blade 2)
Warning: Turning off Unsteady Aerodynamics because UA parameters are not included in airfoil
(airfoil has likely has constant polars). (node 4, blade 2)
Warning: Turning off Unsteady Aerodynamics because UA parameters are not included in airfoil
(airfoil has likely has constant polars). (node 1, blade 3)
Warning: Turning off Unsteady Aerodynamics because UA parameters are not included in airfoil
(airfoil has likely has constant polars). (node 2, blade 3)
Warning: Turning off Unsteady Aerodynamics because UA parameters are not included in airfoil
(airfoil has likely has constant polars). (node 3, blade 3)
Warning: Turning off Unsteady Aerodynamics because UA parameters are not included in airfoil
(airfoil has likely has constant polars). (node 4, blade 3)
Running InflowWind.

   Reading a 31x31 grid (145 m wide, 17.5 m to 162.5 m above ground) with a characteristic wind
   speed of 12 m/s. This full-field file was generated by TurbSim (v1.06.00, 21-Sep-2012) on
   07-Jan-2014 at 12:50:45.

   Processed 1442 time steps of 20-Hz full-field data (72.05 seconds).
Running ServoDyn.
Running ServoDyn Interface for Bladed Controllers (using Intel Visual Fortran for Windows, ).
Using legacy Bladed DLL interface.
 Time: 0 of 20 seconds.

FAST_Solution:FAST_AdvanceStates:SrvD_UpdateStates:DLL_controller_call:BladedInterface option was
designed for an explicit-loose coupling scheme. Using last calculated values from DLL on all
subsequent calls until time is advanced. Warning will not be displayed again.
                                                                                                   Time: 1 of 20 seconds.  Estimated final completion at 14:43:48.                                                                                                   Time: 2 of 20 seconds.  Estimated final completion at 14:43:34.                                                                                                   Time: 3 of 20 seconds.  Estimated final completion at 14:43:31.                                                                                                   Time: 4 of 20 seconds.  Estimated final completion at 14:43:57.                                                                                                   Time: 5 of 20 seconds.  Estimated final completion at 14:43:38.                                                                                                   Time: 6 of 20 seconds.  Estimated final completion at 14:43:40.                                                                                                   Time: 7 of 20 seconds.  Estimated final completion at 14:43:56.                                                                                                   Time: 8 of 20 seconds.  Estimated final completion at 14:43:40.                                                                                                   Time: 9 of 20 seconds.  Estimated final completion at 14:43:39.                                                                                                   Time: 10 of 20 seconds.  Estimated final completion at 14:43:46.                                                                                                   Time: 11 of 20 seconds.  Estimated final completion at 14:43:50.                                                                                                   Time: 12 of 20 seconds.  Estimated final completion at 14:43:44.                                                                                                   Time: 13 of 20 seconds.  Estimated final completion at 14:43:41.                                                                                                   Time: 14 of 20 seconds.  Estimated final completion at 14:43:39.                                                                                                   Time: 15 of 20 seconds.  Estimated final completion at 14:43:39.                                                                                                   Time: 16 of 20 seconds.  Estimated final completion at 14:43:39.                                                                                                   Time: 17 of 20 seconds.  Estimated final completion at 14:43:41.                                                                                                   Time: 18 of 20 seconds.  Estimated final completion at 14:43:44.                                                                                                   Time: 19 of 20 seconds.  Estimated final completion at 14:43:41.                                                                                                  

 Total Real Time:       2.5392 minutes
 Total CPU Time:        2.5318 minutes
 Simulation CPU Time:   2.5154 minutes
 Simulated Time:        0.33335 minutes
 Time Ratio (Sim/CPU):  0.13253

 OpenFAST terminated normally.

