
This summary information was generated by AeroDyn on 24-Jul-2024 at 17:06:19.

======  General Options  ============================================================================
            1  WakeMod        - Type of wake/induction model: Blade-Element/Momentum Theory
            1  TwrPotent      - Type of tower influence on wind based on potential flow around the tower: baseline potential flow
            0  TwrShadow      - Type of tower influence on wind based on downstream tower shadow: none
            T  TwrAero        - Calculate tower aerodynamic loads? Yes
            F  CavitCheck     - Perform cavitation check? No
            F  Buoyancy       - Include buoyancy effects? No
            T  NacelleDrag    - Include NacelleDrag effects? Yes
======  Blade-Element/Momentum Theory Options  ======================================================
            1  Skew_Mod       - Skewed-wake correction model: active
            T  TipLoss        - Use the Prandtl tip-loss model? Yes
            T  HubLoss        - Use the Prandtl hub-loss model? Yes
            T  TanInd         - Include tangential induction in BEMT calculations? Yes
            F  AIDrag         - Include the drag term in the axial-induction calculation? No
            F  TIDrag         - Include the drag term in the tangential-induction calculation? No
   5.0000E-10  IndToler       - Convergence tolerance for BEM induction factors (radians)
            0  DBEMT_Mod      - Type of dynamic BEMT (DBEMT) model: quasi-steady
======================== Unsteady Airfoil Aerodynamics Options  =====================================
            3  UA_Mod         - Unsteady Aero Model: Minnema/Pierce variant (changes in Cc and Cm)
            T  FLookup        - Use a lookup for f'? Yes
======  Outputs  ====================================================================================
            0  NBlOuts        - Number of blade nodes selected for output
            0  NTwOuts        - Number of tower nodes selected for output

               Requested Output Channels:
                Col   Parameter            Units               
                ---   ---------------      ---------------     
                  0   Time                 (s)                 
                  1   NcFdx                (N)                 
                  2   NcFdy                (N)                 
                  3   NcFdz                (N)                 
                  4   NcMdx                (N-m)               
                  5   NcMdy                (N-m)               
                  6   NcMdz                (N-m)               
                  7   NcFxi                (N)                 
                  8   NcFyi                (N)                 
                  9   NcFzi                (N)                 
                 10   NcMxi                (N-m)               
                 11   NcMyi                (N-m)               
                 12   NcMzi                (N-m)               


               Requested Output Channels at each blade station:
                Col   Parameter            Units               
                ---   ---------------      ---------------     


Buoyancy parameters:

Hub volume (m^3):           0.000
Nacelle volume (m^3):       0.000
Total blade volume (m^3):   0.000
Tower volume (m^3):         0.000
