
These predictions were generated by FAST (v7.02.00d-bjj, 20-Feb-2013) on 23-Feb-2013 at 15:09:07.
The aerodynamic calculations were made by AeroDyn (v13.00.02a-bjj, 20-Feb-2013).

 FAST certification Test #16: FAST model of a SWRT 3-bladed upwind turbine.  Note- SWRT rotates in CCW direction- some inputs will be mirror image of the actual turbine.

Time	TotWindV	HorWndDir	VerWndDir	RotSpeed	TailFurlP	TailFurlV	TailFurlA	NacYawP	NacYawErr	RootFxc3	RootFyc3	RootMxc1	RootMyc1	RotThrust	RotTorq	RotPwr	CThrstAzm	CThrstRad	TFrlBrM	TFinAlpha	TFinCLift	TFinCDrag	TFinDnPrs	TFinCPFx	TFinCPFy
(s)	(m/s)	(deg)	(deg)	(rpm)	(deg)	(deg/s)	(deg/s^2)	(deg)	(deg)	(kN)	(kN)	(kN·m)	(kN·m)	(kN)	(kN·m)	(kW)	(deg)	(-)	(kN·m)	(deg)	(-)	(-)	(Pa)	(kN)	(kN)
   5.000	 1.200E+01	 0.000E+00	 8.000E+00	 2.452E+02	 2.714E+00	 1.143E-02	 1.208E+00	-1.292E+01	 1.292E+01	 3.220E-01	-3.694E-02	 2.194E-01	 2.563E-01	 1.326E+00	 2.743E-01	 7.044E+00	 3.303E+01	 3.147E-02	-8.493E-02	 1.693E+01	 8.848E-01	 2.459E-01	 4.227E+01	-9.684E-04	 3.946E-02
   5.008	 1.200E+01	 0.000E+00	 8.000E+00	 2.452E+02	 2.714E+00	 1.878E-02	 5.427E-01	-1.292E+01	 1.292E+01	 3.338E-01	-6.153E-02	 2.145E-01	 2.608E-01	 1.325E+00	 2.744E-01	 7.045E+00	 3.340E+01	 3.183E-02	-8.489E-02	 1.693E+01	 8.848E-01	 2.459E-01	 4.227E+01	-9.683E-04	 3.947E-02
   5.016	 1.200E+01	 0.000E+00	 8.000E+00	 2.452E+02	 2.714E+00	 1.902E-02	-5.233E-01	-1.292E+01	 1.292E+01	 3.481E-01	-8.794E-02	 2.034E-01	 2.642E-01	 1.326E+00	 2.744E-01	 7.046E+00	 3.410E+01	 3.201E-02	-8.484E-02	 1.694E+01	 8.849E-01	 2.460E-01	 4.227E+01	-9.678E-04	 3.947E-02
   5.024	 1.200E+01	 0.000E+00	 8.000E+00	 2.453E+02	 2.714E+00	 1.024E-02	-1.605E+00	-1.292E+01	 1.292E+01	 3.648E-01	-1.152E-01	 1.865E-01	 2.660E-01	 1.327E+00	 2.744E-01	 7.047E+00	 3.481E+01	 3.202E-02	-8.481E-02	 1.694E+01	 8.850E-01	 2.461E-01	 4.226E+01	-9.670E-04	 3.947E-02
   5.032	 1.200E+01	 0.000E+00	 8.000E+00	 2.453E+02	 2.714E+00	-4.735E-03	-1.995E+00	-1.293E+01	 1.293E+01	 3.828E-01	-1.418E-01	 1.643E-01	 2.660E-01	 1.328E+00	 2.744E-01	 7.049E+00	 3.533E+01	 3.188E-02	-8.480E-02	 1.694E+01	 8.851E-01	 2.462E-01	 4.225E+01	-9.662E-04	 3.947E-02
   5.040	 1.200E+01	 0.000E+00	 8.000E+00	 2.453E+02	 2.714E+00	-1.938E-02	-1.532E+00	-1.293E+01	 1.293E+01	 4.008E-01	-1.662E-01	 1.375E-01	 2.643E-01	 1.329E+00	 2.745E-01	 7.050E+00	 3.568E+01	 3.157E-02	-8.483E-02	 1.695E+01	 8.852E-01	 2.462E-01	 4.225E+01	-9.656E-04	 3.946E-02
   5.048	 1.200E+01	 0.000E+00	 8.000E+00	 2.453E+02	 2.714E+00	-2.822E-02	-6.591E-01	-1.293E+01	 1.293E+01	 4.178E-01	-1.872E-01	 1.071E-01	 2.611E-01	 1.329E+00	 2.745E-01	 7.051E+00	 3.571E+01	 3.116E-02	-8.489E-02	 1.695E+01	 8.852E-01	 2.463E-01	 4.224E+01	-9.649E-04	 3.946E-02
   5.056	 1.200E+01	 0.000E+00	 8.000E+00	 2.453E+02	 2.714E+00	-2.982E-02	 2.672E-01	-1.293E+01	 1.293E+01	 4.334E-01	-2.042E-01	 7.460E-02	 2.564E-01	 1.329E+00	 2.745E-01	 7.052E+00	 3.535E+01	 3.072E-02	-8.496E-02	 1.695E+01	 8.853E-01	 2.464E-01	 4.224E+01	-9.643E-04	 3.946E-02
   5.064	 1.200E+01	 0.000E+00	 8.000E+00	 2.453E+02	 2.713E+00	-2.379E-02	 1.219E+00	-1.294E+01	 1.294E+01	 4.469E-01	-2.165E-01	 4.179E-02	 2.502E-01	 1.329E+00	 2.745E-01	 7.053E+00	 3.453E+01	 3.040E-02	-8.503E-02	 1.695E+01	 8.853E-01	 2.464E-01	 4.224E+01	-9.642E-04	 3.947E-02
   5.072	 1.200E+01	 0.000E+00	 8.000E+00	 2.454E+02	 2.713E+00	-1.125E-02	 1.845E+00	-1.294E+01	 1.294E+01	 4.578E-01	-2.239E-01	 1.057E-02	 2.427E-01	 1.328E+00	 2.745E-01	 7.054E+00	 3.363E+01	 3.043E-02	-8.507E-02	 1.695E+01	 8.853E-01	 2.464E-01	 4.225E+01	-9.647E-04	 3.947E-02
   5.080	 1.200E+01	 0.000E+00	 8.000E+00	 2.454E+02	 2.713E+00	 4.242E-03	 1.911E+00	-1.294E+01	 1.294E+01	 4.666E-01	-2.263E-01	-1.794E-02	 2.342E-01	 1.326E+00	 2.745E-01	 7.054E+00	 3.324E+01	 3.075E-02	-8.507E-02	 1.695E+01	 8.853E-01	 2.464E-01	 4.226E+01	-9.652E-04	 3.948E-02
   5.088	 1.200E+01	 0.000E+00	 8.000E+00	 2.454E+02	 2.713E+00	 1.769E-02	 1.363E+00	-1.294E+01	 1.294E+01	 4.730E-01	-2.234E-01	-4.305E-02	 2.253E-01	 1.325E+00	 2.746E-01	 7.055E+00	 3.351E+01	 3.114E-02	-8.504E-02	 1.695E+01	 8.853E-01	 2.464E-01	 4.226E+01	-9.652E-04	 3.949E-02
   5.096	 1.200E+01	 0.000E+00	 8.000E+00	 2.454E+02	 2.714E+00	 2.473E-02	 3.424E-01	-1.294E+01	 1.294E+01	 4.766E-01	-2.153E-01	-6.429E-02	 2.165E-01	 1.326E+00	 2.746E-01	 7.056E+00	 3.419E+01	 3.138E-02	-8.499E-02	 1.695E+01	 8.853E-01	 2.464E-01	 4.226E+01	-9.649E-04	 3.949E-02
   5.104	 1.200E+01	 0.000E+00	 8.000E+00	 2.454E+02	 2.714E+00	 2.263E-02	-8.475E-01	-1.295E+01	 1.295E+01	 4.767E-01	-2.022E-01	-8.112E-02	 2.082E-01	 1.327E+00	 2.746E-01	 7.057E+00	 3.496E+01	 3.144E-02	-8.493E-02	 1.696E+01	 8.854E-01	 2.465E-01	 4.226E+01	-9.643E-04	 3.948E-02
   5.112	 1.200E+01	 0.000E+00	 8.000E+00	 2.454E+02	 2.714E+00	 1.290E-02	-1.453E+00	-1.295E+01	 1.295E+01	 4.732E-01	-1.844E-01	-9.217E-02	 2.008E-01	 1.328E+00	 2.746E-01	 7.058E+00	 3.556E+01	 3.133E-02	-8.489E-02	 1.696E+01	 8.855E-01	 2.466E-01	 4.225E+01	-9.636E-04	 3.948E-02
   5.120	 1.200E+01	 0.000E+00	 8.000E+00	 2.454E+02	 2.714E+00	 1.652E-03	-1.224E+00	-1.295E+01	 1.295E+01	 4.662E-01	-1.627E-01	-9.612E-02	 1.944E-01	 1.329E+00	 2.747E-01	 7.059E+00	 3.596E+01	 3.107E-02	-8.488E-02	 1.696E+01	 8.855E-01	 2.467E-01	 4.224E+01	-9.630E-04	 3.948E-02
   5.128	 1.200E+01	 0.000E+00	 8.000E+00	 2.455E+02	 2.714E+00	-5.167E-03	-4.551E-01	-1.295E+01	 1.295E+01	 4.558E-01	-1.379E-01	-9.228E-02	 1.892E-01	 1.329E+00	 2.747E-01	 7.060E+00	 3.608E+01	 3.069E-02	-8.488E-02	 1.696E+01	 8.856E-01	 2.467E-01	 4.224E+01	-9.625E-04	 3.948E-02
   5.136	 1.200E+01	 0.000E+00	 8.000E+00	 2.455E+02	 2.714E+00	-5.574E-03	 3.615E-01	-1.295E+01	 1.295E+01	 4.426E-01	-1.112E-01	-8.120E-02	 1.855E-01	 1.329E+00	 2.747E-01	 7.062E+00	 3.581E+01	 3.028E-02	-8.490E-02	 1.697E+01	 8.857E-01	 2.468E-01	 4.223E+01	-9.618E-04	 3.948E-02
   5.144	 1.200E+01	 0.000E+00	 8.000E+00	 2.455E+02	 2.714E+00	 6.674E-04	 1.201E+00	-1.296E+01	 1.296E+01	 4.274E-01	-8.385E-02	-6.425E-02	 1.836E-01	 1.329E+00	 2.747E-01	 7.062E+00	 3.509E+01	 2.994E-02	-8.490E-02	 1.697E+01	 8.857E-01	 2.468E-01	 4.223E+01	-9.616E-04	 3.948E-02
   5.152	 1.200E+01	 0.000E+00	 8.000E+00	 2.455E+02	 2.714E+00	 1.296E-02	 1.807E+00	-1.296E+01	 1.296E+01	 4.101E-01	-5.727E-02	-4.265E-02	 1.834E-01	 1.328E+00	 2.747E-01	 7.063E+00	 3.418E+01	 2.992E-02	-8.489E-02	 1.697E+01	 8.856E-01	 2.468E-01	 4.224E+01	-9.621E-04	 3.948E-02
   5.160	 1.200E+01	 0.000E+00	 8.000E+00	 2.455E+02	 2.714E+00	 2.831E-02	 1.918E+00	-1.296E+01	 1.296E+01	 3.915E-01	-3.260E-02	-1.755E-02	 1.849E-01	 1.327E+00	 2.747E-01	 7.064E+00	 3.368E+01	 3.020E-02	-8.483E-02	 1.696E+01	 8.856E-01	 2.467E-01	 4.225E+01	-9.627E-04	 3.949E-02
   5.168	 1.200E+01	 0.000E+00	 8.000E+00	 2.455E+02	 2.714E+00	 4.200E-02	 1.414E+00	-1.296E+01	 1.296E+01	 3.728E-01	-1.069E-02	 1.050E-02	 1.880E-01	 1.326E+00	 2.748E-01	 7.065E+00	 3.386E+01	 3.060E-02	-8.475E-02	 1.696E+01	 8.856E-01	 2.467E-01	 4.226E+01	-9.629E-04	 3.950E-02
   5.176	 1.200E+01	 0.000E+00	 8.000E+00	 2.456E+02	 2.715E+00	 4.953E-02	 3.957E-01	-1.296E+01	 1.296E+01	 3.550E-01	 7.913E-03	 4.121E-02	 1.928E-01	 1.326E+00	 2.748E-01	 7.066E+00	 3.451E+01	 3.089E-02	-8.464E-02	 1.697E+01	 8.856E-01	 2.467E-01	 4.226E+01	-9.628E-04	 3.950E-02
   5.184	 1.200E+01	 0.000E+00	 8.000E+00	 2.456E+02	 2.715E+00	 4.766E-02	-8.752E-01	-1.296E+01	 1.296E+01	 3.388E-01	 2.281E-02	 7.375E-02	 1.989E-01	 1.327E+00	 2.748E-01	 7.067E+00	 3.531E+01	 3.100E-02	-8.452E-02	 1.697E+01	 8.857E-01	 2.468E-01	 4.225E+01	-9.622E-04	 3.949E-02
   5.192	 1.200E+01	 0.000E+00	 8.000E+00	 2.456E+02	 2.715E+00	 3.682E-02	-1.710E+00	-1.297E+01	 1.297E+01	 3.248E-01	 3.299E-02	 1.064E-01	 2.062E-01	 1.328E+00	 2.748E-01	 7.068E+00	 3.598E+01	 3.094E-02	-8.442E-02	 1.697E+01	 8.857E-01	 2.469E-01	 4.224E+01	-9.616E-04	 3.949E-02
   5.200	 1.200E+01	 0.000E+00	 8.000E+00	 2.456E+02	 2.716E+00	 2.256E-02	-1.708E+00	-1.297E+01	 1.297E+01	 3.138E-01	 3.743E-02	 1.371E-01	 2.144E-01	 1.329E+00	 2.748E-01	 7.069E+00	 3.642E+01	 3.072E-02	-8.435E-02	 1.697E+01	 8.858E-01	 2.470E-01	 4.224E+01	-9.610E-04	 3.949E-02
   5.208	 1.200E+01	 0.000E+00	 8.000E+00	 2.456E+02	 2.716E+00	 1.131E-02	-1.062E+00	-1.297E+01	 1.297E+01	 3.062E-01	 3.567E-02	 1.640E-01	 2.227E-01	 1.330E+00	 2.749E-01	 7.070E+00	 3.659E+01	 3.038E-02	-8.431E-02	 1.697E+01	 8.859E-01	 2.470E-01	 4.223E+01	-9.605E-04	 3.949E-02
   5.216	 1.200E+01	 0.000E+00	 8.000E+00	 2.456E+02	 2.716E+00	 5.913E-03	-2.882E-01	-1.297E+01	 1.297E+01	 3.024E-01	 2.785E-02	 1.862E-01	 2.311E-01	 1.330E+00	 2.749E-01	 7.071E+00	 3.639E+01	 2.998E-02	-8.430E-02	 1.698E+01	 8.859E-01	 2.471E-01	 4.222E+01	-9.599E-04	 3.948E-02
   5.224	 1.200E+01	 0.000E+00	 8.000E+00	 2.457E+02	 2.716E+00	 6.759E-03	 5.183E-01	-1.297E+01	 1.297E+01	 3.027E-01	 1.466E-02	 2.031E-01	 2.390E-01	 1.330E+00	 2.749E-01	 7.072E+00	 3.575E+01	 2.963E-02	-8.428E-02	 1.698E+01	 8.860E-01	 2.472E-01	 4.222E+01	-9.595E-04	 3.948E-02
   5.232	 1.200E+01	 0.000E+00	 8.000E+00	 2.457E+02	 2.716E+00	 1.372E-02	 1.174E+00	-1.297E+01	 1.297E+01	 3.065E-01	-2.867E-03	 2.143E-01	 2.463E-01	 1.329E+00	 2.749E-01	 7.073E+00	 3.484E+01	 2.953E-02	-8.426E-02	 1.698E+01	 8.859E-01	 2.471E-01	 4.223E+01	-9.599E-04	 3.949E-02
   5.240	 1.200E+01	 0.000E+00	 8.000E+00	 2.457E+02	 2.716E+00	 2.446E-02	 1.412E+00	-1.298E+01	 1.298E+01	 3.134E-01	-2.356E-02	 2.195E-01	 2.528E-01	 1.327E+00	 2.749E-01	 7.074E+00	 3.423E+01	 2.976E-02	-8.421E-02	 1.698E+01	 8.859E-01	 2.471E-01	 4.224E+01	-9.605E-04	 3.950E-02
   5.248	 1.200E+01	 0.000E+00	 8.000E+00	 2.457E+02	 2.716E+00	 3.468E-02	 1.047E+00	-1.298E+01	 1.298E+01	 3.232E-01	-4.690E-02	 2.184E-01	 2.585E-01	 1.326E+00	 2.749E-01	 7.074E+00	 3.426E+01	 3.015E-02	-8.414E-02	 1.697E+01	 8.859E-01	 2.470E-01	 4.225E+01	-9.609E-04	 3.950E-02
   5.256	 1.200E+01	 0.000E+00	 8.000E+00	 2.457E+02	 2.717E+00	 3.979E-02	 1.552E-01	-1.298E+01	 1.298E+01	 3.360E-01	-7.237E-02	 2.108E-01	 2.630E-01	 1.326E+00	 2.750E-01	 7.075E+00	 3.483E+01	 3.047E-02	-8.405E-02	 1.698E+01	 8.859E-01	 2.470E-01	 4.225E+01	-9.608E-04	 3.951E-02
   5.264	 1.200E+01	 0.000E+00	 8.000E+00	 2.457E+02	 2.717E+00	 3.622E-02	-1.072E+00	-1.298E+01	 1.298E+01	 3.515E-01	-9.940E-02	 1.970E-01	 2.662E-01	 1.327E+00	 2.750E-01	 7.076E+00	 3.561E+01	 3.061E-02	-8.396E-02	 1.698E+01	 8.859E-01	 2.471E-01	 4.225E+01	-9.604E-04	 3.950E-02
   5.272	 1.200E+01	 0.000E+00	 8.000E+00	 2.457E+02	 2.717E+00	 2.346E-02	-1.990E+00	-1.298E+01	 1.298E+01	 3.691E-01	-1.266E-01	 1.777E-01	 2.676E-01	 1.328E+00	 2.750E-01	 7.077E+00	 3.632E+01	 3.059E-02	-8.389E-02	 1.698E+01	 8.860E-01	 2.472E-01	 4.224E+01	-9.598E-04	 3.950E-02
   5.280	 1.200E+01	 0.000E+00	 8.000E+00	 2.458E+02	 2.717E+00	 6.533E-03	-2.084E+00	-1.298E+01	 1.298E+01	 3.876E-01	-1.525E-01	 1.533E-01	 2.671E-01	 1.329E+00	 2.750E-01	 7.078E+00	 3.679E+01	 3.039E-02	-8.385E-02	 1.698E+01	 8.861E-01	 2.472E-01	 4.223E+01	-9.592E-04	 3.950E-02
   5.288	 1.200E+01	 0.000E+00	 8.000E+00	 2.458E+02	 2.717E+00	-7.844E-03	-1.430E+00	-1.299E+01	 1.299E+01	 4.058E-01	-1.756E-01	 1.248E-01	 2.649E-01	 1.330E+00	 2.751E-01	 7.079E+00	 3.700E+01	 3.003E-02	-8.386E-02	 1.698E+01	 8.861E-01	 2.473E-01	 4.223E+01	-9.587E-04	 3.950E-02
   5.296	 1.200E+01	 0.000E+00	 8.000E+00	 2.458E+02	 2.717E+00	-1.596E-02	-5.940E-01	-1.299E+01	 1.299E+01	 4.229E-01	-1.951E-01	 9.325E-02	 2.610E-01	 1.330E+00	 2.751E-01	 7.080E+00	 3.681E+01	 2.965E-02	-8.389E-02	 1.699E+01	 8.862E-01	 2.474E-01	 4.222E+01	-9.581E-04	 3.949E-02
   5.304	 1.200E+01	 0.000E+00	 8.000E+00	 2.458E+02	 2.717E+00	-1.732E-02	 2.611E-01	-1.299E+01	 1.299E+01	 4.385E-01	-2.103E-01	 6.030E-02	 2.556E-01	 1.330E+00	 2.751E-01	 7.081E+00	 3.623E+01	 2.928E-02	-8.393E-02	 1.699E+01	 8.862E-01	 2.474E-01	 4.222E+01	-9.577E-04	 3.949E-02
   5.312	 1.200E+01	 0.000E+00	 8.000E+00	 2.458E+02	 2.717E+00	-1.194E-02	 1.031E+00	-1.299E+01	 1.299E+01	 4.516E-01	-2.206E-01	 2.785E-02	 2.487E-01	 1.329E+00	 2.751E-01	 7.082E+00	 3.531E+01	 2.912E-02	-8.397E-02	 1.699E+01	 8.862E-01	 2.474E-01	 4.222E+01	-9.579E-04	 3.950E-02
   5.320	 1.200E+01	 0.000E+00	 8.000E+00	 2.458E+02	 2.717E+00	-1.646E-03	 1.450E+00	-1.299E+01	 1.299E+01	 4.623E-01	-2.259E-01	-2.412E-03	 2.406E-01	 1.328E+00	 2.751E-01	 7.083E+00	 3.459E+01	 2.928E-02	-8.398E-02	 1.699E+01	 8.861E-01	 2.473E-01	 4.223E+01	-9.586E-04	 3.950E-02
   5.328	 1.200E+01	 0.000E+00	 8.000E+00	 2.459E+02	 2.717E+00	 9.625E-03	 1.269E+00	-1.299E+01	 1.299E+01	 4.708E-01	-2.260E-01	-2.962E-02	 2.315E-01	 1.327E+00	 2.751E-01	 7.084E+00	 3.448E+01	 2.964E-02	-8.397E-02	 1.698E+01	 8.861E-01	 2.473E-01	 4.224E+01	-9.591E-04	 3.951E-02
   5.336	 1.200E+01	 0.000E+00	 8.000E+00	 2.459E+02	 2.717E+00	 1.722E-02	 5.427E-01	-1.299E+01	 1.299E+01	 4.766E-01	-2.208E-01	-5.311E-02	 2.222E-01	 1.326E+00	 2.752E-01	 7.084E+00	 3.494E+01	 2.999E-02	-8.393E-02	 1.698E+01	 8.861E-01	 2.473E-01	 4.224E+01	-9.592E-04	 3.951E-02
   5.344	 1.200E+01	 0.000E+00	 8.000E+00	 2.459E+02	 2.717E+00	 1.724E-02	-5.699E-01	-1.299E+01	 1.299E+01	 4.792E-01	-2.103E-01	-7.245E-02	 2.133E-01	 1.327E+00	 2.752E-01	 7.085E+00	 3.570E+01	 3.015E-02	-8.389E-02	 1.699E+01	 8.861E-01	 2.473E-01	 4.224E+01	-9.588E-04	 3.951E-02
   5.352	 1.200E+01	 0.000E+00	 8.000E+00	 2.459E+02	 2.717E+00	 8.295E-03	-1.552E+00	-1.299E+01	 1.299E+01	 4.783E-01	-1.950E-01	-8.673E-02	 2.049E-01	 1.328E+00	 2.752E-01	 7.086E+00	 3.645E+01	 3.016E-02	-8.386E-02	 1.699E+01	 8.862E-01	 2.474E-01	 4.223E+01	-9.583E-04	 3.951E-02
   5.360	 1.200E+01	 0.000E+00	 8.000E+00	 2.459E+02	 2.717E+00	-5.535E-03	-1.759E+00	-1.300E+01	 1.300E+01	 4.735E-01	-1.753E-01	-9.459E-02	 1.975E-01	 1.329E+00	 2.752E-01	 7.087E+00	 3.696E+01	 2.999E-02	-8.386E-02	 1.699E+01	 8.863E-01	 2.475E-01	 4.223E+01	-9.578E-04	 3.950E-02
   5.368	 1.200E+01	 0.000E+00	 8.000E+00	 2.459E+02	 2.717E+00	-1.767E-02	-1.172E+00	-1.300E+01	 1.300E+01	 4.653E-01	-1.521E-01	-9.501E-02	 1.912E-01	 1.330E+00	 2.752E-01	 7.088E+00	 3.722E+01	 2.966E-02	-8.389E-02	 1.699E+01	 8.863E-01	 2.475E-01	 4.222E+01	-9.573E-04	 3.950E-02
   5.376	 1.200E+01	 0.000E+00	 8.000E+00	 2.459E+02	 2.717E+00	-2.379E-02	-3.432E-01	-1.300E+01	 1.300E+01	 4.533E-01	-1.262E-01	-8.778E-02	 1.863E-01	 1.330E+00	 2.753E-01	 7.090E+00	 3.708E+01	 2.929E-02	-8.394E-02	 1.699E+01	 8.864E-01	 2.476E-01	 4.221E+01	-9.568E-04	 3.950E-02
   5.384	 1.200E+01	 0.000E+00	 8.000E+00	 2.460E+02	 2.717E+00	-2.313E-02	 5.057E-01	-1.300E+01	 1.300E+01	 4.391E-01	-9.894E-02	-7.392E-02	 1.831E-01	 1.330E+00	 2.753E-01	 7.091E+00	 3.656E+01	 2.891E-02	-8.400E-02	 1.700E+01	 8.864E-01	 2.476E-01	 4.221E+01	-9.563E-04	 3.949E-02
   5.392	 1.200E+01	 0.000E+00	 8.000E+00	 2.460E+02	 2.717E+00	-1.570E-02	 1.310E+00	-1.300E+01	 1.300E+01	 4.227E-01	-7.174E-02	-5.469E-02	 1.817E-01	 1.330E+00	 2.753E-01	 7.091E+00	 3.568E+01	 2.870E-02	-8.404E-02	 1.700E+01	 8.864E-01	 2.476E-01	 4.221E+01	-9.565E-04	 3.950E-02
   5.400	 1.200E+01	 0.000E+00	 8.000E+00	 2.460E+02	 2.717E+00	-2.926E-03	 1.810E+00	-1.300E+01	 1.300E+01	 4.045E-01	-4.584E-02	-3.129E-02	 1.820E-01	 1.328E+00	 2.753E-01	 7.092E+00	 3.489E+01	 2.881E-02	-8.407E-02	 1.699E+01	 8.863E-01	 2.475E-01	 4.222E+01	-9.572E-04	 3.950E-02
   5.408	 1.200E+01	 0.000E+00	 8.000E+00	 2.460E+02	 2.717E+00	 1.165E-02	 1.731E+00	-1.300E+01	 1.300E+01	 3.855E-01	-2.227E-02	-4.624E-03	 1.840E-01	 1.327E+00	 2.753E-01	 7.093E+00	 3.467E+01	 2.915E-02	-8.405E-02	 1.699E+01	 8.863E-01	 2.475E-01	 4.223E+01	-9.578E-04	 3.951E-02
   5.416	 1.200E+01	 0.000E+00	 8.000E+00	 2.460E+02	 2.717E+00	 2.324E-02	 1.074E+00	-1.300E+01	 1.300E+01	 3.666E-01	-1.789E-03	 2.488E-02	 1.878E-01	 1.326E+00	 2.753E-01	 7.093E+00	 3.506E+01	 2.952E-02	-8.401E-02	 1.699E+01	 8.862E-01	 2.475E-01	 4.224E+01	-9.580E-04	 3.951E-02
   5.424	 1.200E+01	 0.000E+00	 8.000E+00	 2.460E+02	 2.717E+00	 2.763E-02	-2.524E-02	-1.300E+01	 1.300E+01	 3.490E-01	 1.515E-02	 5.666E-02	 1.932E-01	 1.327E+00	 2.754E-01	 7.094E+00	 3.581E+01	 2.972E-02	-8.395E-02	 1.699E+01	 8.863E-01	 2.475E-01	 4.223E+01	-9.578E-04	 3.951E-02
   5.432	 1.200E+01	 0.000E+00	 8.000E+00	 2.460E+02	 2.717E+00	 2.271E-02	-1.130E+00	-1.300E+01	 1.300E+01	 3.330E-01	 2.796E-02	 8.947E-02	 2.000E-01	 1.328E+00	 2.754E-01	 7.095E+00	 3.661E+01	 2.978E-02	-8.388E-02	 1.699E+01	 8.863E-01	 2.475E-01	 4.223E+01	-9.573E-04	 3.951E-02
   5.440	 1.200E+01	 0.000E+00	 8.000E+00	 2.461E+02	 2.717E+00	 1.146E-02	-1.548E+00	-1.301E+01	 1.301E+01	 3.198E-01	 3.547E-02	 1.214E-01	 2.079E-01	 1.329E+00	 2.754E-01	 7.096E+00	 3.718E+01	 2.965E-02	-8.385E-02	 1.699E+01	 8.864E-01	 2.476E-01	 4.222E+01	-9.569E-04	 3.950E-02
   5.448	 1.200E+01	 0.000E+00	 8.000E+00	 2.461E+02	 2.717E+00	 2.059E-04	-1.155E+00	-1.301E+01	 1.301E+01	 3.098E-01	 3.700E-02	 1.504E-01	 2.164E-01	 1.330E+00	 2.754E-01	 7.097E+00	 3.750E+01	 2.936E-02	-8.383E-02	 1.700E+01	 8.864E-01	 2.476E-01	 4.221E+01	-9.565E-04	 3.950E-02
   5.456	 1.200E+01	 0.000E+00	 8.000E+00	 2.461E+02	 2.717E+00	-6.029E-03	-3.941E-01	-1.301E+01	 1.301E+01	 3.034E-01	 3.234E-02	 1.752E-01	 2.251E-01	 1.330E+00	 2.754E-01	 7.098E+00	 3.742E+01	 2.901E-02	-8.384E-02	 1.700E+01	 8.865E-01	 2.477E-01	 4.221E+01	-9.560E-04	 3.950E-02
   5.464	 1.200E+01	 0.000E+00	 8.000E+00	 2.461E+02	 2.717E+00	-6.080E-03	 3.804E-01	-1.301E+01	 1.301E+01	 3.011E-01	 2.196E-02	 1.951E-01	 2.336E-01	 1.330E+00	 2.755E-01	 7.099E+00	 3.698E+01	 2.865E-02	-8.386E-02	 1.700E+01	 8.865E-01	 2.478E-01	 4.220E+01	-9.555E-04	 3.949E-02
   5.472	 1.200E+01	 0.000E+00	 8.000E+00	 2.461E+02	 2.717E+00	 1.339E-04	 1.157E+00	-1.301E+01	 1.301E+01	 3.026E-01	 6.608E-03	 2.094E-01	 2.417E-01	 1.330E+00	 2.755E-01	 7.100E+00	 3.616E+01	 2.841E-02	-8.387E-02	 1.700E+01	 8.865E-01	 2.477E-01	 4.220E+01	-9.556E-04	 3.949E-02
   5.480	 1.200E+01	 0.000E+00	 8.000E+00	 2.461E+02	 2.717E+00	 1.165E-02	 1.671E+00	-1.301E+01	 1.301E+01	 3.075E-01	-1.248E-02	 2.177E-01	 2.490E-01	 1.329E+00	 2.755E-01	 7.101E+00	 3.534E+01	 2.847E-02	-8.385E-02	 1.700E+01	 8.864E-01	 2.477E-01	 4.221E+01	-9.562E-04	 3.950E-02
   5.488	 1.200E+01	 0.000E+00	 8.000E+00	 2.461E+02	 2.718E+00	 2.535E-02	 1.653E+00	-1.301E+01	 1.301E+01	 3.154E-01	-3.456E-02	 2.199E-01	 2.555E-01	 1.327E+00	 2.755E-01	 7.102E+00	 3.502E+01	 2.879E-02	-8.380E-02	 1.699E+01	 8.864E-01	 2.476E-01	 4.222E+01	-9.569E-04	 3.951E-02
   5.496	 1.200E+01	 0.000E+00	 8.000E+00	 2.462E+02	 2.718E+00	 3.649E-02	 1.041E+00	-1.301E+01	 1.301E+01	 3.265E-01	-5.908E-02	 2.155E-01	 2.610E-01	 1.326E+00	 2.755E-01	 7.102E+00	 3.533E+01	 2.917E-02	-8.373E-02	 1.699E+01	 8.863E-01	 2.476E-01	 4.223E+01	-9.572E-04	 3.951E-02
   5.504	 1.200E+01	 0.000E+00	 8.000E+00	 2.462E+02	 2.718E+00	 4.070E-02	-4.663E-02	-1.301E+01	 1.301E+01	 3.405E-01	-8.547E-02	 2.048E-01	 2.653E-01	 1.327E+00	 2.755E-01	 7.103E+00	 3.605E+01	 2.942E-02	-8.363E-02	 1.699E+01	 8.863E-01	 2.476E-01	 4.223E+01	-9.572E-04	 3.951E-02
   5.512	 1.200E+01	 0.000E+00	 8.000E+00	 2.462E+02	 2.718E+00	 3.538E-02	-1.241E+00	-1.301E+01	 1.301E+01	 3.573E-01	-1.127E-01	 1.882E-01	 2.679E-01	 1.328E+00	 2.756E-01	 7.104E+00	 3.687E+01	 2.951E-02	-8.354E-02	 1.700E+01	 8.864E-01	 2.476E-01	 4.222E+01	-9.568E-04	 3.951E-02
   5.520	 1.200E+01	 0.000E+00	 8.000E+00	 2.462E+02	 2.719E+00	 2.270E-02	-1.805E+00	-1.301E+01	 1.301E+01	 3.757E-01	-1.395E-01	 1.662E-01	 2.686E-01	 1.329E+00	 2.756E-01	 7.105E+00	 3.749E+01	 2.942E-02	-8.347E-02	 1.700E+01	 8.864E-01	 2.477E-01	 4.221E+01	-9.563E-04	 3.950E-02
   5.528	 1.200E+01	 0.000E+00	 8.000E+00	 2.462E+02	 2.719E+00	 8.808E-03	-1.545E+00	-1.301E+01	 1.301E+01	 3.946E-01	-1.642E-01	 1.396E-01	 2.675E-01	 1.330E+00	 2.756E-01	 7.106E+00	 3.785E+01	 2.915E-02	-8.344E-02	 1.700E+01	 8.865E-01	 2.477E-01	 4.221E+01	-9.559E-04	 3.950E-02
   5.536	 1.200E+01	 0.000E+00	 8.000E+00	 2.462E+02	 2.719E+00	-6.431E-04	-8.014E-01	-1.301E+01	 1.301E+01	 4.127E-01	-1.856E-01	 1.094E-01	 2.645E-01	 1.331E+00	 2.756E-01	 7.107E+00	 3.786E+01	 2.878E-02	-8.343E-02	 1.700E+01	 8.865E-01	 2.478E-01	 4.220E+01	-9.554E-04	 3.949E-02
   5.544	 1.200E+01	 0.000E+00	 8.000E+00	 2.462E+02	 2.719E+00	-4.063E-03	-4.779E-02	-1.302E+01	 1.302E+01	 4.297E-01	-2.032E-01	 7.701E-02	 2.599E-01	 1.331E+00	 2.756E-01	 7.108E+00	 3.745E+01	 2.843E-02	-8.344E-02	 1.700E+01	 8.866E-01	 2.478E-01	 4.219E+01	-9.549E-04	 3.949E-02
   5.552	 1.200E+01	 0.000E+00	 8.000E+00	 2.463E+02	 2.719E+00	-1.427E-03	 7.068E-01	-1.302E+01	 1.302E+01	 4.448E-01	-2.162E-01	 4.399E-02	 2.537E-01	 1.331E+00	 2.757E-01	 7.109E+00	 3.667E+01	 2.817E-02	-8.345E-02	 1.700E+01	 8.866E-01	 2.478E-01	 4.219E+01	-9.548E-04	 3.949E-02
   5.560	 1.200E+01	 0.000E+00	 8.000E+00	 2.463E+02	 2.719E+00	 6.732E-03	 1.281E+00	-1.302E+01	 1.302E+01	 4.573E-01	-2.242E-01	 1.239E-02	 2.460E-01	 1.329E+00	 2.757E-01	 7.109E+00	 3.580E+01	 2.819E-02	-8.344E-02	 1.700E+01	 8.865E-01	 2.478E-01	 4.220E+01	-9.555E-04	 3.949E-02
   5.568	 1.200E+01	 0.000E+00	 8.000E+00	 2.463E+02	 2.719E+00	 1.783E-02	 1.392E+00	-1.302E+01	 1.302E+01	 4.675E-01	-2.270E-01	-1.653E-02	 2.371E-01	 1.328E+00	 2.757E-01	 7.110E+00	 3.537E+01	 2.847E-02	-8.341E-02	 1.700E+01	 8.864E-01	 2.477E-01	 4.221E+01	-9.562E-04	 3.950E-02
   5.576	 1.200E+01	 0.000E+00	 8.000E+00	 2.463E+02	 2.719E+00	 2.737E-02	 9.004E-01	-1.302E+01	 1.302E+01	 4.751E-01	-2.243E-01	-4.203E-02	 2.276E-01	 1.327E+00	 2.757E-01	 7.111E+00	 3.556E+01	 2.885E-02	-8.335E-02	 1.700E+01	 8.864E-01	 2.476E-01	 4.222E+01	-9.566E-04	 3.951E-02
   5.584	 1.200E+01	 0.000E+00	 8.000E+00	 2.463E+02	 2.719E+00	 3.089E-02	-9.853E-02	-1.302E+01	 1.302E+01	 4.798E-01	-2.164E-01	-6.351E-02	 2.182E-01	 1.327E+00	 2.757E-01	 7.111E+00	 3.623E+01	 2.913E-02	-8.328E-02	 1.700E+01	 8.864E-01	 2.476E-01	 4.222E+01	-9.566E-04	 3.951E-02
   5.592	 1.200E+01	 0.000E+00	 8.000E+00	 2.463E+02	 2.720E+00	 2.535E-02	-1.277E+00	-1.302E+01	 1.302E+01	 4.811E-01	-2.034E-01	-8.041E-02	 2.091E-01	 1.328E+00	 2.757E-01	 7.112E+00	 3.704E+01	 2.924E-02	-8.322E-02	 1.700E+01	 8.864E-01	 2.477E-01	 4.221E+01	-9.563E-04	 3.950E-02
   5.600	 1.200E+01	 0.000E+00	 8.000E+00	 2.463E+02	 2.720E+00	 1.208E-02	-1.922E+00	-1.302E+01	 1.302E+01	 4.786E-01	-1.858E-01	-9.145E-02	 2.009E-01	 1.329E+00	 2.758E-01	 7.113E+00	 3.770E+01	 2.917E-02	-8.317E-02	 1.700E+01	 8.865E-01	 2.477E-01	 4.221E+01	-9.558E-04	 3.950E-02
   5.608	 1.200E+01	 0.000E+00	 8.000E+00	 2.464E+02	 2.720E+00	-3.092E-03	-1.740E+00	-1.302E+01	 1.302E+01	 4.722E-01	-1.641E-01	-9.552E-02	 1.937E-01	 1.331E+00	 2.758E-01	 7.114E+00	 3.809E+01	 2.893E-02	-8.316E-02	 1.700E+01	 8.865E-01	 2.478E-01	 4.220E+01	-9.554E-04	 3.949E-02
   5.616	 1.200E+01	 0.000E+00	 8.000E+00	 2.464E+02	 2.720E+00	-1.416E-02	-9.713E-01	-1.302E+01	 1.302E+01	 4.624E-01	-1.394E-01	-9.197E-02	 1.878E-01	 1.331E+00	 2.758E-01	 7.115E+00	 3.818E+01	 2.855E-02	-8.319E-02	 1.700E+01	 8.866E-01	 2.478E-01	 4.219E+01	-9.550E-04	 3.949E-02
   5.624	 1.200E+01	 0.000E+00	 8.000E+00	 2.464E+02	 2.720E+00	-1.877E-02	-1.802E-01	-1.302E+01	 1.302E+01	 4.490E-01	-1.126E-01	-8.124E-02	 1.835E-01	 1.331E+00	 2.758E-01	 7.116E+00	 3.779E+01	 2.820E-02	-8.323E-02	 1.700E+01	 8.866E-01	 2.479E-01	 4.219E+01	-9.544E-04	 3.949E-02
   5.632	 1.200E+01	 0.000E+00	 8.000E+00	 2.464E+02	 2.719E+00	-1.704E-02	 6.103E-01	-1.302E+01	 1.302E+01	 4.334E-01	-8.505E-02	-6.454E-02	 1.810E-01	 1.331E+00	 2.758E-01	 7.117E+00	 3.702E+01	 2.792E-02	-8.327E-02	 1.700E+01	 8.866E-01	 2.479E-01	 4.218E+01	-9.543E-04	 3.948E-02
   5.640	 1.200E+01	 0.000E+00	 8.000E+00	 2.464E+02	 2.719E+00	-9.272E-03	 1.281E+00	-1.302E+01	 1.302E+01	 4.157E-01	-5.827E-02	-4.303E-02	 1.803E-01	 1.330E+00	 2.758E-01	 7.118E+00	 3.611E+01	 2.789E-02	-8.330E-02	 1.700E+01	 8.866E-01	 2.478E-01	 4.219E+01	-9.548E-04	 3.949E-02
   5.648	 1.200E+01	 0.000E+00	 8.000E+00	 2.464E+02	 2.719E+00	 2.398E-03	 1.535E+00	-1.302E+01	 1.302E+01	 3.967E-01	-3.337E-02	-1.770E-02	 1.813E-01	 1.328E+00	 2.759E-01	 7.119E+00	 3.557E+01	 2.813E-02	-8.331E-02	 1.700E+01	 8.865E-01	 2.477E-01	 4.220E+01	-9.556E-04	 3.950E-02
   5.656	 1.200E+01	 0.000E+00	 8.000E+00	 2.464E+02	 2.719E+00	 1.366E-02	 1.179E+00	-1.302E+01	 1.302E+01	 3.772E-01	-1.126E-02	 1.066E-02	 1.841E-01	 1.327E+00	 2.759E-01	 7.119E+00	 3.567E+01	 2.850E-02	-8.329E-02	 1.700E+01	 8.864E-01	 2.477E-01	 4.221E+01	-9.561E-04	 3.950E-02
   5.664	 1.200E+01	 0.000E+00	 8.000E+00	 2.465E+02	 2.719E+00	 1.981E-02	 2.772E-01	-1.302E+01	 1.302E+01	 3.585E-01	 7.473E-03	 4.164E-02	 1.887E-01	 1.327E+00	 2.759E-01	 7.120E+00	 3.627E+01	 2.880E-02	-8.325E-02	 1.700E+01	 8.864E-01	 2.477E-01	 4.221E+01	-9.562E-04	 3.950E-02
   5.672	 1.200E+01	 0.000E+00	 8.000E+00	 2.465E+02	 2.720E+00	 1.740E-02	-8.937E-01	-1.302E+01	 1.302E+01	 3.411E-01	 2.240E-02	 7.425E-02	 1.950E-01	 1.328E+00	 2.759E-01	 7.121E+00	 3.709E+01	 2.894E-02	-8.320E-02	 1.700E+01	 8.865E-01	 2.477E-01	 4.221E+01	-9.560E-04	 3.950E-02
   5.680	 1.200E+01	 0.000E+00	 8.000E+00	 2.465E+02	 2.720E+00	 6.844E-03	-1.617E+00	-1.302E+01	 1.302E+01	 3.261E-01	 3.249E-02	 1.068E-01	 2.025E-01	 1.329E+00	 2.759E-01	 7.122E+00	 3.778E+01	 2.891E-02	-8.317E-02	 1.700E+01	 8.865E-01	 2.477E-01	 4.220E+01	-9.555E-04	 3.949E-02
   5.688	 1.200E+01	 0.000E+00	 8.000E+00	 2.465E+02	 2.720E+00	-6.430E-03	-1.554E+00	-1.302E+01	 1.302E+01	 3.142E-01	 3.684E-02	 1.374E-01	 2.110E-01	 1.331E+00	 2.759E-01	 7.123E+00	 3.821E+01	 2.870E-02	-8.317E-02	 1.700E+01	 8.865E-01	 2.478E-01	 4.219E+01	-9.551E-04	 3.949E-02
   5.696	 1.200E+01	 0.000E+00	 8.000E+00	 2.465E+02	 2.720E+00	-1.630E-02	-8.464E-01	-1.302E+01	 1.302E+01	 3.057E-01	 3.506E-02	 1.643E-01	 2.198E-01	 1.331E+00	 2.760E-01	 7.124E+00	 3.835E+01	 2.834E-02	-8.320E-02	 1.700E+01	 8.866E-01	 2.478E-01	 4.219E+01	-9.547E-04	 3.948E-02
   5.704	 1.200E+01	 0.000E+00	 8.000E+00	 2.465E+02	 2.719E+00	-1.977E-02	-4.395E-02	-1.302E+01	 1.302E+01	 3.010E-01	 2.729E-02	 1.866E-01	 2.287E-01	 1.331E+00	 2.760E-01	 7.125E+00	 3.803E+01	 2.797E-02	-8.325E-02	 1.700E+01	 8.866E-01	 2.479E-01	 4.218E+01	-9.542E-04	 3.948E-02
   5.712	 1.200E+01	 0.000E+00	 8.000E+00	 2.465E+02	 2.719E+00	-1.704E-02	 7.283E-01	-1.302E+01	 1.302E+01	 3.005E-01	 1.417E-02	 2.037E-01	 2.373E-01	 1.331E+00	 2.760E-01	 7.125E+00	 3.731E+01	 2.768E-02	-8.329E-02	 1.701E+01	 8.866E-01	 2.479E-01	 4.217E+01	-9.540E-04	 3.948E-02
   5.720	 1.200E+01	 0.000E+00	 8.000E+00	 2.465E+02	 2.719E+00	-8.354E-03	 1.410E+00	-1.302E+01	 1.302E+01	 3.036E-01	-3.316E-03	 2.149E-01	 2.452E-01	 1.330E+00	 2.760E-01	 7.126E+00	 3.640E+01	 2.761E-02	-8.332E-02	 1.700E+01	 8.866E-01	 2.478E-01	 4.218E+01	-9.545E-04	 3.948E-02
   5.728	 1.200E+01	 0.000E+00	 8.000E+00	 2.466E+02	 2.719E+00	 4.589E-03	 1.732E+00	-1.302E+01	 1.302E+01	 3.098E-01	-2.413E-02	 2.200E-01	 2.523E-01	 1.329E+00	 2.760E-01	 7.127E+00	 3.579E+01	 2.782E-02	-8.333E-02	 1.700E+01	 8.865E-01	 2.477E-01	 4.219E+01	-9.553E-04	 3.949E-02
   5.736	 1.200E+01	 0.000E+00	 8.000E+00	 2.466E+02	 2.719E+00	 1.776E-02	 1.455E+00	-1.302E+01	 1.302E+01	 3.193E-01	-4.768E-02	 2.184E-01	 2.586E-01	 1.327E+00	 2.760E-01	 7.127E+00	 3.580E+01	 2.818E-02	-8.330E-02	 1.700E+01	 8.864E-01	 2.477E-01	 4.220E+01	-9.559E-04	 3.949E-02
   5.744	 1.200E+01	 0.000E+00	 8.000E+00	 2.466E+02	 2.719E+00	 2.636E-02	 6.063E-01	-1.302E+01	 1.302E+01	 3.319E-01	-7.337E-02	 2.104E-01	 2.637E-01	 1.327E+00	 2.760E-01	 7.128E+00	 3.635E+01	 2.851E-02	-8.324E-02	 1.700E+01	 8.864E-01	 2.477E-01	 4.220E+01	-9.561E-04	 3.949E-02
   5.752	 1.200E+01	 0.000E+00	 8.000E+00	 2.466E+02	 2.720E+00	 2.656E-02	-5.780E-01	-1.302E+01	 1.302E+01	 3.476E-01	-1.005E-01	 1.963E-01	 2.673E-01	 1.328E+00	 2.761E-01	 7.129E+00	 3.716E+01	 2.868E-02	-8.318E-02	 1.700E+01	 8.864E-01	 2.477E-01	 4.220E+01	-9.559E-04	 3.949E-02
   5.760	 1.200E+01	 0.000E+00	 8.000E+00	 2.466E+02	 2.720E+00	 1.794E-02	-1.447E+00	-1.303E+01	 1.303E+01	 3.656E-01	-1.276E-01	 1.766E-01	 2.691E-01	 1.329E+00	 2.761E-01	 7.130E+00	 3.790E+01	 2.868E-02	-8.312E-02	 1.700E+01	 8.865E-01	 2.477E-01	 4.219E+01	-9.555E-04	 3.948E-02
   5.768	 1.200E+01	 0.000E+00	 8.000E+00	 2.466E+02	 2.720E+00	 5.385E-03	-1.543E+00	-1.303E+01	 1.303E+01	 3.846E-01	-1.534E-01	 1.520E-01	 2.690E-01	 1.331E+00	 2.761E-01	 7.131E+00	 3.838E+01	 2.851E-02	-8.310E-02	 1.700E+01	 8.865E-01	 2.478E-01	 4.219E+01	-9.551E-04	 3.948E-02
   5.776	 1.200E+01	 0.000E+00	 8.000E+00	 2.466E+02	 2.720E+00	-4.886E-03	-9.428E-01	-1.303E+01	 1.303E+01	 4.034E-01	-1.765E-01	 1.232E-01	 2.670E-01	 1.331E+00	 2.761E-01	 7.132E+00	 3.856E+01	 2.818E-02	-8.310E-02	 1.700E+01	 8.865E-01	 2.478E-01	 4.218E+01	-9.548E-04	 3.947E-02
   5.784	 1.200E+01	 0.000E+00	 8.000E+00	 2.467E+02	 2.720E+00	-9.158E-03	-1.499E-01	-1.303E+01	 1.303E+01	 4.214E-01	-1.959E-01	 9.160E-02	 2.631E-01	 1.332E+00	 2.761E-01	 7.133E+00	 3.835E+01	 2.780E-02	-8.312E-02	 1.700E+01	 8.866E-01	 2.478E-01	 4.217E+01	-9.543E-04	 3.947E-02
   5.792	 1.200E+01	 0.000E+00	 8.000E+00	 2.467E+02	 2.720E+00	-7.491E-03	 5.687E-01	-1.303E+01	 1.303E+01	 4.378E-01	-2.111E-01	 5.858E-02	 2.575E-01	 1.332E+00	 2.762E-01	 7.133E+00	 3.767E+01	 2.750E-02	-8.314E-02	 1.700E+01	 8.866E-01	 2.479E-01	 4.216E+01	-9.539E-04	 3.946E-02
   5.800	 1.200E+01	 0.000E+00	 8.000E+00	 2.467E+02	 2.720E+00	-1.899E-04	 1.233E+00	-1.303E+01	 1.303E+01	 4.519E-01	-2.215E-01	 2.607E-02	 2.504E-01	 1.331E+00	 2.762E-01	 7.134E+00	 3.676E+01	 2.741E-02	-8.315E-02	 1.700E+01	 8.866E-01	 2.478E-01	 4.217E+01	-9.544E-04	 3.947E-02
   5.808	 1.200E+01	 0.000E+00	 8.000E+00	 2.467E+02	 2.720E+00	 1.144E-02	 1.594E+00	-1.303E+01	 1.303E+01	 4.635E-01	-2.266E-01	-4.199E-03	 2.419E-01	 1.329E+00	 2.762E-01	 7.135E+00	 3.609E+01	 2.759E-02	-8.313E-02	 1.700E+01	 8.865E-01	 2.477E-01	 4.218E+01	-9.552E-04	 3.947E-02
   5.816	 1.200E+01	 0.000E+00	 8.000E+00	 2.467E+02	 2.720E+00	 2.377E-02	 1.385E+00	-1.303E+01	 1.303E+01	 4.727E-01	-2.264E-01	-3.133E-02	 2.325E-01	 1.328E+00	 2.762E-01	 7.135E+00	 3.602E+01	 2.795E-02	-8.309E-02	 1.700E+01	 8.864E-01	 2.476E-01	 4.219E+01	-9.559E-04	 3.948E-02
   5.824	 1.200E+01	 0.000E+00	 8.000E+00	 2.467E+02	 2.720E+00	 3.207E-02	 5.997E-01	-1.303E+01	 1.303E+01	 4.791E-01	-2.207E-01	-5.462E-02	 2.228E-01	 1.327E+00	 2.762E-01	 7.136E+00	 3.650E+01	 2.829E-02	-8.302E-02	 1.700E+01	 8.864E-01	 2.476E-01	 4.219E+01	-9.562E-04	 3.948E-02
   5.832	 1.200E+01	 0.000E+00	 8.000E+00	 2.467E+02	 2.720E+00	 3.227E-02	-5.572E-01	-1.303E+01	 1.303E+01	 4.823E-01	-2.099E-01	-7.361E-02	 2.133E-01	 1.328E+00	 2.762E-01	 7.137E+00	 3.728E+01	 2.848E-02	-8.294E-02	 1.700E+01	 8.864E-01	 2.476E-01	 4.219E+01	-9.560E-04	 3.948E-02
   5.840	 1.200E+01	 0.000E+00	 8.000E+00	 2.467E+02	 2.721E+00	 2.330E-02	-1.548E+00	-1.303E+01	 1.303E+01	 4.817E-01	-1.942E-01	-8.727E-02	 2.044E-01	 1.329E+00	 2.762E-01	 7.138E+00	 3.807E+01	 2.852E-02	-8.288E-02	 1.700E+01	 8.864E-01	 2.477E-01	 4.218E+01	-9.556E-04	 3.947E-02
   5.848	 1.200E+01	 0.000E+00	 8.000E+00	 2.468E+02	 2.721E+00	 9.474E-03	-1.766E+00	-1.303E+01	 1.303E+01	 4.771E-01	-1.741E-01	-9.440E-02	 1.965E-01	 1.331E+00	 2.763E-01	 7.139E+00	 3.859E+01	 2.837E-02	-8.284E-02	 1.700E+01	 8.865E-01	 2.477E-01	 4.218E+01	-9.553E-04	 3.947E-02
   5.856	 1.200E+01	 0.000E+00	 8.000E+00	 2.468E+02	 2.721E+00	-2.943E-03	-1.243E+00	-1.303E+01	 1.303E+01	 4.688E-01	-1.506E-01	-9.415E-02	 1.898E-01	 1.332E+00	 2.763E-01	 7.140E+00	 3.880E+01	 2.806E-02	-8.283E-02	 1.700E+01	 8.865E-01	 2.477E-01	 4.217E+01	-9.549E-04	 3.947E-02
   5.864	 1.200E+01	 0.000E+00	 8.000E+00	 2.468E+02	 2.721E+00	-9.646E-03	-4.330E-01	-1.303E+01	 1.303E+01	 4.572E-01	-1.245E-01	-8.646E-02	 1.845E-01	 1.332E+00	 2.763E-01	 7.141E+00	 3.865E+01	 2.767E-02	-8.285E-02	 1.700E+01	 8.865E-01	 2.478E-01	 4.216E+01	-9.544E-04	 3.946E-02
   5.872	 1.200E+01	 0.000E+00	 8.000E+00	 2.468E+02	 2.721E+00	-1.025E-02	 2.819E-01	-1.303E+01	 1.303E+01	 4.424E-01	-9.705E-02	-7.225E-02	 1.810E-01	 1.332E+00	 2.763E-01	 7.141E+00	 3.801E+01	 2.738E-02	-8.288E-02	 1.700E+01	 8.866E-01	 2.478E-01	 4.216E+01	-9.540E-04	 3.945E-02
   5.880	 1.200E+01	 0.000E+00	 8.000E+00	 2.468E+02	 2.721E+00	-5.143E-03	 9.827E-01	-1.303E+01	 1.303E+01	 4.254E-01	-6.973E-02	-5.270E-02	 1.794E-01	 1.331E+00	 2.763E-01	 7.142E+00	 3.710E+01	 2.725E-02	-8.290E-02	 1.700E+01	 8.865E-01	 2.478E-01	 4.216E+01	-9.543E-04	 3.946E-02
   5.888	 1.200E+01	 0.000E+00	 8.000E+00	 2.468E+02	 2.721E+00	 4.733E-03	 1.418E+00	-1.303E+01	 1.303E+01	 4.065E-01	-4.382E-02	-2.883E-02	 1.796E-01	 1.330E+00	 2.763E-01	 7.143E+00	 3.637E+01	 2.739E-02	-8.290E-02	 1.700E+01	 8.864E-01	 2.477E-01	 4.217E+01	-9.552E-04	 3.946E-02
   5.896	 1.200E+01	 0.000E+00	 8.000E+00	 2.468E+02	 2.721E+00	 1.606E-02	 1.316E+00	-1.303E+01	 1.303E+01	 3.868E-01	-2.034E-02	-1.570E-03	 1.815E-01	 1.328E+00	 2.764E-01	 7.143E+00	 3.620E+01	 2.773E-02	-8.287E-02	 1.699E+01	 8.864E-01	 2.476E-01	 4.218E+01	-9.559E-04	 3.947E-02
   5.904	 1.200E+01	 0.000E+00	 8.000E+00	 2.468E+02	 2.721E+00	 2.414E-02	 6.217E-01	-1.303E+01	 1.303E+01	 3.673E-01	-6.608E-05	 2.852E-02	 1.854E-01	 1.328E+00	 2.764E-01	 7.144E+00	 3.659E+01	 2.809E-02	-8.282E-02	 1.699E+01	 8.863E-01	 2.476E-01	 4.219E+01	-9.562E-04	 3.947E-02
   5.912	 1.200E+01	 0.000E+00	 8.000E+00	 2.469E+02	 2.721E+00	 2.477E-02	-4.826E-01	-1.303E+01	 1.303E+01	 3.491E-01	 1.656E-02	 6.070E-02	 1.909E-01	 1.328E+00	 2.764E-01	 7.144E+00	 3.734E+01	 2.830E-02	-8.276E-02	 1.699E+01	 8.863E-01	 2.476E-01	 4.218E+01	-9.562E-04	 3.947E-02
   5.920	 1.200E+01	 0.000E+00	 8.000E+00	 2.469E+02	 2.721E+00	 1.633E-02	-1.516E+00	-1.303E+01	 1.303E+01	 3.325E-01	 2.881E-02	 9.356E-02	 1.981E-01	 1.329E+00	 2.764E-01	 7.145E+00	 3.815E+01	 2.836E-02	-8.271E-02	 1.699E+01	 8.864E-01	 2.476E-01	 4.218E+01	-9.558E-04	 3.946E-02
   5.928	 1.200E+01	 0.000E+00	 8.000E+00	 2.469E+02	 2.721E+00	 2.509E-03	-1.813E+00	-1.303E+01	 1.303E+01	 3.189E-01	 3.559E-02	 1.252E-01	 2.063E-01	 1.331E+00	 2.764E-01	 7.146E+00	 3.871E+01	 2.824E-02	-8.269E-02	 1.700E+01	 8.864E-01	 2.476E-01	 4.217E+01	-9.554E-04	 3.946E-02
   5.936	 1.200E+01	 0.000E+00	 8.000E+00	 2.469E+02	 2.721E+00	-1.051E-02	-1.341E+00	-1.303E+01	 1.303E+01	 3.087E-01	 3.639E-02	 1.537E-01	 2.152E-01	 1.332E+00	 2.764E-01	 7.147E+00	 3.895E+01	 2.794E-02	-8.270E-02	 1.700E+01	 8.864E-01	 2.477E-01	 4.216E+01	-9.551E-04	 3.946E-02
   5.944	 1.200E+01	 0.000E+00	 8.000E+00	 2.469E+02	 2.721E+00	-1.803E-02	-5.119E-01	-1.303E+01	 1.303E+01	 3.021E-01	 3.106E-02	 1.781E-01	 2.243E-01	 1.332E+00	 2.765E-01	 7.148E+00	 3.885E+01	 2.754E-02	-8.274E-02	 1.700E+01	 8.865E-01	 2.477E-01	 4.216E+01	-9.546E-04	 3.945E-02
   5.952	 1.200E+01	 0.000E+00	 8.000E+00	 2.469E+02	 2.721E+00	-1.921E-02	 2.128E-01	-1.303E+01	 1.303E+01	 2.997E-01	 2.009E-02	 1.976E-01	 2.332E-01	 1.332E+00	 2.765E-01	 7.149E+00	 3.823E+01	 2.725E-02	-8.278E-02	 1.700E+01	 8.865E-01	 2.478E-01	 4.215E+01	-9.541E-04	 3.944E-02
   5.960	 1.200E+01	 0.000E+00	 8.000E+00	 2.469E+02	 2.721E+00	-1.457E-02	 9.359E-01	-1.303E+01	 1.303E+01	 3.011E-01	 4.235E-03	 2.113E-01	 2.417E-01	 1.332E+00	 2.765E-01	 7.150E+00	 3.735E+01	 2.708E-02	-8.282E-02	 1.700E+01	 8.865E-01	 2.477E-01	 4.215E+01	-9.544E-04	 3.944E-02
   5.968	 1.200E+01	 0.000E+00	 8.000E+00	 2.469E+02	 2.721E+00	-4.720E-03	 1.465E+00	-1.303E+01	 1.303E+01	 3.059E-01	-1.531E-02	 2.190E-01	 2.493E-01	 1.330E+00	 2.765E-01	 7.150E+00	 3.657E+01	 2.718E-02	-8.285E-02	 1.700E+01	 8.864E-01	 2.476E-01	 4.216E+01	-9.552E-04	 3.945E-02
   5.976	 1.200E+01	 0.000E+00	 8.000E+00	 2.470E+02	 2.721E+00	 7.415E-03	 1.472E+00	-1.303E+01	 1.303E+01	 3.139E-01	-3.790E-02	 2.201E-01	 2.561E-01	 1.329E+00	 2.765E-01	 7.151E+00	 3.631E+01	 2.750E-02	-8.284E-02	 1.699E+01	 8.863E-01	 2.476E-01	 4.217E+01	-9.560E-04	 3.946E-02
   5.984	 1.200E+01	 0.000E+00	 8.000E+00	 2.470E+02	 2.721E+00	 1.717E-02	 8.745E-01	-1.303E+01	 1.303E+01	 3.253E-01	-6.290E-02	 2.146E-01	 2.619E-01	 1.328E+00	 2.765E-01	 7.151E+00	 3.663E+01	 2.786E-02	-8.281E-02	 1.699E+01	 8.863E-01	 2.475E-01	 4.218E+01	-9.564E-04	 3.946E-02
   5.992	 1.200E+01	 0.000E+00	 8.000E+00	 2.470E+02	 2.721E+00	 1.999E-02	-1.990E-01	-1.303E+01	 1.303E+01	 3.399E-01	-8.966E-02	 2.027E-01	 2.663E-01	 1.328E+00	 2.765E-01	 7.152E+00	 3.735E+01	 2.810E-02	-8.276E-02	 1.699E+01	 8.863E-01	 2.475E-01	 4.218E+01	-9.564E-04	 3.946E-02
   6.000	 1.200E+01	 0.000E+00	 8.000E+00	 2.470E+02	 2.721E+00	 1.378E-02	-1.283E+00	-1.303E+01	 1.303E+01	 3.571E-01	-1.170E-01	 1.851E-01	 2.690E-01	 1.329E+00	 2.766E-01	 7.153E+00	 3.818E+01	 2.820E-02	-8.272E-02	 1.699E+01	 8.863E-01	 2.475E-01	 4.217E+01	-9.561E-04	 3.945E-02
   6.008	 1.200E+01	 0.000E+00	 8.000E+00	 2.470E+02	 2.721E+00	 1.454E-03	-1.675E+00	-1.303E+01	 1.303E+01	 3.760E-01	-1.435E-01	 1.623E-01	 2.698E-01	 1.331E+00	 2.766E-01	 7.154E+00	 3.877E+01	 2.809E-02	-8.270E-02	 1.699E+01	 8.863E-01	 2.476E-01	 4.216E+01	-9.557E-04	 3.945E-02
   6.016	 1.200E+01	 0.000E+00	 8.000E+00	 2.470E+02	 2.721E+00	-1.079E-02	-1.282E+00	-1.303E+01	 1.303E+01	 3.953E-01	-1.678E-01	 1.350E-01	 2.685E-01	 1.332E+00	 2.766E-01	 7.155E+00	 3.905E+01	 2.782E-02	-8.272E-02	 1.699E+01	 8.864E-01	 2.476E-01	 4.216E+01	-9.554E-04	 3.944E-02
   6.024	 1.200E+01	 0.000E+00	 8.000E+00	 2.470E+02	 2.721E+00	-1.788E-02	-4.613E-01	-1.303E+01	 1.303E+01	 4.138E-01	-1.888E-01	 1.043E-01	 2.654E-01	 1.332E+00	 2.766E-01	 7.156E+00	 3.898E+01	 2.743E-02	-8.276E-02	 1.700E+01	 8.864E-01	 2.476E-01	 4.215E+01	-9.549E-04	 3.944E-02
   6.032	 1.200E+01	 0.000E+00	 8.000E+00	 2.470E+02	 2.721E+00	-1.847E-02	 2.840E-01	-1.302E+01	 1.302E+01	 4.313E-01	-2.058E-01	 7.158E-02	 2.604E-01	 1.333E+00	 2.766E-01	 7.157E+00	 3.844E+01	 2.712E-02	-8.280E-02	 1.700E+01	 8.864E-01	 2.477E-01	 4.214E+01	-9.544E-04	 3.943E-02
   6.040	 1.200E+01	 0.000E+00	 8.000E+00	 2.471E+02	 2.721E+00	-1.343E-02	 9.816E-01	-1.302E+01	 1.302E+01	 4.467E-01	-2.182E-01	 3.854E-02	 2.539E-01	 1.332E+00	 2.766E-01	 7.157E+00	 3.758E+01	 2.693E-02	-8.284E-02	 1.700E+01	 8.864E-01	 2.477E-01	 4.214E+01	-9.546E-04	 3.943E-02
   6.048	 1.200E+01	 0.000E+00	 8.000E+00	 2.471E+02	 2.721E+00	-3.221E-03	 1.528E+00	-1.302E+01	 1.302E+01	 4.596E-01	-2.254E-01	 7.174E-03	 2.458E-01	 1.331E+00	 2.766E-01	 7.158E+00	 3.677E+01	 2.700E-02	-8.286E-02	 1.699E+01	 8.863E-01	 2.476E-01	 4.215E+01	-9.554E-04	 3.944E-02
   6.056	 1.200E+01	 0.000E+00	 8.000E+00	 2.471E+02	 2.721E+00	 9.669E-03	 1.601E+00	-1.302E+01	 1.302E+01	 4.700E-01	-2.273E-01	-2.131E-02	 2.366E-01	 1.329E+00	 2.767E-01	 7.158E+00	 3.644E+01	 2.730E-02	-8.285E-02	 1.699E+01	 8.863E-01	 2.475E-01	 4.216E+01	-9.562E-04	 3.944E-02
   6.064	 1.200E+01	 0.000E+00	 8.000E+00	 2.471E+02	 2.721E+00	 2.076E-02	 1.070E+00	-1.302E+01	 1.302E+01	 4.777E-01	-2.237E-01	-4.618E-02	 2.268E-01	 1.328E+00	 2.767E-01	 7.159E+00	 3.669E+01	 2.767E-02	-8.281E-02	 1.699E+01	 8.862E-01	 2.474E-01	 4.217E+01	-9.567E-04	 3.945E-02
   6.072	 1.200E+01	 0.000E+00	 8.000E+00	 2.471E+02	 2.721E+00	 2.537E-02	 1.325E-02	-1.302E+01	 1.302E+01	 4.823E-01	-2.147E-01	-6.686E-02	 2.171E-01	 1.328E+00	 2.767E-01	 7.160E+00	 3.738E+01	 2.793E-02	-8.275E-02	 1.699E+01	 8.862E-01	 2.474E-01	 4.217E+01	-9.568E-04	 3.944E-02
   6.080	 1.200E+01	 0.000E+00	 8.000E+00	 2.471E+02	 2.721E+00	 2.086E-02	-1.115E+00	-1.302E+01	 1.302E+01	 4.834E-01	-2.008E-01	-8.264E-02	 2.077E-01	 1.329E+00	 2.767E-01	 7.160E+00	 3.821E+01	 2.806E-02	-8.269E-02	 1.699E+01	 8.862E-01	 2.474E-01	 4.216E+01	-9.565E-04	 3.944E-02
   6.088	 1.200E+01	 0.000E+00	 8.000E+00	 2.471E+02	 2.721E+00	 9.393E-03	-1.637E+00	-1.302E+01	 1.302E+01	 4.805E-01	-1.823E-01	-9.230E-02	 1.992E-01	 1.331E+00	 2.767E-01	 7.161E+00	 3.885E+01	 2.799E-02	-8.266E-02	 1.699E+01	 8.862E-01	 2.475E-01	 4.215E+01	-9.561E-04	 3.944E-02
   6.096	 1.200E+01	 0.000E+00	 8.000E+00	 2.471E+02	 2.721E+00	-3.042E-03	-1.361E+00	-1.302E+01	 1.302E+01	 4.737E-01	-1.600E-01	-9.490E-02	 1.919E-01	 1.332E+00	 2.767E-01	 7.162E+00	 3.917E+01	 2.774E-02	-8.266E-02	 1.699E+01	 8.863E-01	 2.475E-01	 4.215E+01	-9.558E-04	 3.943E-02
   6.104	 1.200E+01	 0.000E+00	 8.000E+00	 2.472E+02	 2.721E+00	-1.102E-02	-5.974E-01	-1.302E+01	 1.302E+01	 4.633E-01	-1.348E-01	-8.999E-02	 1.859E-01	 1.333E+00	 2.768E-01	 7.163E+00	 3.915E+01	 2.737E-02	-8.267E-02	 1.699E+01	 8.863E-01	 2.475E-01	 4.214E+01	-9.554E-04	 3.943E-02
   6.112	 1.200E+01	 0.000E+00	 8.000E+00	 2.472E+02	 2.721E+00	-1.267E-02	 1.460E-01	-1.302E+01	 1.302E+01	 4.495E-01	-1.076E-01	-7.815E-02	 1.816E-01	 1.333E+00	 2.768E-01	 7.164E+00	 3.866E+01	 2.705E-02	-8.270E-02	 1.699E+01	 8.864E-01	 2.476E-01	 4.213E+01	-9.549E-04	 3.942E-02
   6.120	 1.200E+01	 0.000E+00	 8.000E+00	 2.472E+02	 2.721E+00	-8.846E-03	 8.155E-01	-1.302E+01	 1.302E+01	 4.333E-01	-8.001E-02	-6.049E-02	 1.792E-01	 1.333E+00	 2.768E-01	 7.165E+00	 3.784E+01	 2.685E-02	-8.273E-02	 1.699E+01	 8.863E-01	 2.476E-01	 4.213E+01	-9.549E-04	 3.942E-02
   6.128	 1.200E+01	 0.000E+00	 8.000E+00	 2.472E+02	 2.721E+00	 1.175E-04	 1.382E+00	-1.302E+01	 1.302E+01	 4.149E-01	-5.339E-02	-3.812E-02	 1.785E-01	 1.331E+00	 2.768E-01	 7.165E+00	 3.701E+01	 2.689E-02	-8.274E-02	 1.699E+01	 8.863E-01	 2.475E-01	 4.214E+01	-9.557E-04	 3.942E-02
   6.136	 1.200E+01	 0.000E+00	 8.000E+00	 2.472E+02	 2.721E+00	 1.211E-02	 1.524E+00	-1.302E+01	 1.302E+01	 3.953E-01	-2.884E-02	-1.194E-02	 1.797E-01	 1.330E+00	 2.768E-01	 7.166E+00	 3.661E+01	 2.716E-02	-8.272E-02	 1.699E+01	 8.862E-01	 2.474E-01	 4.215E+01	-9.566E-04	 3.943E-02
   6.144	 1.200E+01	 0.000E+00	 8.000E+00	 2.472E+02	 2.721E+00	 2.289E-02	 1.065E+00	-1.302E+01	 1.302E+01	 3.754E-01	-7.277E-03	 1.726E-02	 1.828E-01	 1.328E+00	 2.768E-01	 7.166E+00	 3.679E+01	 2.753E-02	-8.268E-02	 1.698E+01	 8.861E-01	 2.473E-01	 4.216E+01	-9.571E-04	 3.943E-02
   6.152	 1.200E+01	 0.000E+00	 8.000E+00	 2.472E+02	 2.722E+00	 2.765E-02	 4.380E-02	-1.302E+01	 1.302E+01	 3.563E-01	 1.077E-02	 4.888E-02	 1.878E-01	 1.328E+00	 2.768E-01	 7.167E+00	 3.744E+01	 2.782E-02	-8.262E-02	 1.698E+01	 8.861E-01	 2.473E-01	 4.216E+01	-9.573E-04	 3.943E-02
   6.160	 1.200E+01	 0.000E+00	 8.000E+00	 2.472E+02	 2.722E+00	 2.334E-02	-1.117E+00	-1.302E+01	 1.302E+01	 3.387E-01	 2.477E-02	 8.171E-02	 1.945E-01	 1.329E+00	 2.768E-01	 7.168E+00	 3.827E+01	 2.796E-02	-8.256E-02	 1.698E+01	 8.861E-01	 2.473E-01	 4.215E+01	-9.570E-04	 3.943E-02
   6.168	 1.200E+01	 0.000E+00	 8.000E+00	 2.472E+02	 2.722E+00	 1.150E-02	-1.727E+00	-1.302E+01	 1.302E+01	 3.238E-01	 3.361E-02	 1.140E-01	 2.024E-01	 1.331E+00	 2.769E-01	 7.169E+00	 3.894E+01	 2.791E-02	-8.251E-02	 1.699E+01	 8.862E-01	 2.474E-01	 4.215E+01	-9.566E-04	 3.942E-02
   6.176	 1.200E+01	 0.000E+00	 8.000E+00	 2.473E+02	 2.722E+00	-2.089E-03	-1.541E+00	-1.302E+01	 1.302E+01	 3.121E-01	 3.664E-02	 1.439E-01	 2.112E-01	 1.332E+00	 2.769E-01	 7.169E+00	 3.930E+01	 2.769E-02	-8.251E-02	 1.699E+01	 8.862E-01	 2.474E-01	 4.214E+01	-9.562E-04	 3.942E-02
   6.184	 1.200E+01	 0.000E+00	 8.000E+00	 2.473E+02	 2.722E+00	-1.169E-02	-8.121E-01	-1.302E+01	 1.302E+01	 3.039E-01	 3.355E-02	 1.699E-01	 2.204E-01	 1.333E+00	 2.769E-01	 7.170E+00	 3.931E+01	 2.733E-02	-8.253E-02	 1.699E+01	 8.862E-01	 2.474E-01	 4.213E+01	-9.559E-04	 3.941E-02
   6.192	 1.200E+01	 0.000E+00	 8.000E+00	 2.473E+02	 2.722E+00	-1.486E-02	-2.222E-02	-1.302E+01	 1.302E+01	 2.998E-01	 2.458E-02	 1.913E-01	 2.295E-01	 1.333E+00	 2.769E-01	 7.171E+00	 3.887E+01	 2.698E-02	-8.256E-02	 1.699E+01	 8.863E-01	 2.475E-01	 4.212E+01	-9.553E-04	 3.941E-02
   6.200	 1.200E+01	 0.000E+00	 8.000E+00	 2.473E+02	 2.722E+00	-1.237E-02	 6.400E-01	-1.302E+01	 1.302E+01	 2.997E-01	 1.039E-02	 2.073E-01	 2.384E-01	 1.333E+00	 2.769E-01	 7.172E+00	 3.807E+01	 2.678E-02	-8.259E-02	 1.699E+01	 8.863E-01	 2.475E-01	 4.212E+01	-9.553E-04	 3.940E-02
   6.208	 1.200E+01	 0.000E+00	 8.000E+00	 2.473E+02	 2.722E+00	-4.665E-03	 1.241E+00	-1.302E+01	 1.302E+01	 3.032E-01	-7.935E-03	 2.172E-01	 2.465E-01	 1.332E+00	 2.769E-01	 7.172E+00	 3.722E+01	 2.679E-02	-8.261E-02	 1.699E+01	 8.862E-01	 2.474E-01	 4.213E+01	-9.560E-04	 3.941E-02
   6.216	 1.200E+01	 0.000E+00	 8.000E+00	 2.473E+02	 2.722E+00	 6.547E-03	 1.467E+00	-1.302E+01	 1.302E+01	 3.100E-01	-2.958E-02	 2.207E-01	 2.537E-01	 1.330E+00	 2.770E-01	 7.173E+00	 3.675E+01	 2.704E-02	-8.261E-02	 1.698E+01	 8.861E-01	 2.473E-01	 4.214E+01	-9.569E-04	 3.942E-02
   6.224	 1.200E+01	 0.000E+00	 8.000E+00	 2.473E+02	 2.722E+00	 1.722E-02	 1.093E+00	-1.302E+01	 1.302E+01	 3.202E-01	-5.389E-02	 2.175E-01	 2.600E-01	 1.329E+00	 2.770E-01	 7.173E+00	 3.686E+01	 2.740E-02	-8.258E-02	 1.698E+01	 8.860E-01	 2.472E-01	 4.215E+01	-9.575E-04	 3.942E-02
   6.232	 1.200E+01	 0.000E+00	 8.000E+00	 2.473E+02	 2.722E+00	 2.252E-02	 1.418E-01	-1.302E+01	 1.302E+01	 3.337E-01	-8.021E-02	 2.077E-01	 2.650E-01	 1.329E+00	 2.770E-01	 7.174E+00	 3.745E+01	 2.770E-02	-8.253E-02	 1.698E+01	 8.860E-01	 2.472E-01	 4.215E+01	-9.577E-04	 3.942E-02
   6.240	 1.200E+01	 0.000E+00	 8.000E+00	 2.473E+02	 2.722E+00	 1.903E-02	-1.024E+00	-1.302E+01	 1.302E+01	 3.502E-01	-1.075E-01	 1.919E-01	 2.684E-01	 1.329E+00	 2.770E-01	 7.175E+00	 3.827E+01	 2.787E-02	-8.248E-02	 1.698E+01	 8.860E-01	 2.472E-01	 4.215E+01	-9.575E-04	 3.942E-02
   6.248	 1.200E+01	 0.000E+00	 8.000E+00	 2.474E+02	 2.722E+00	 7.635E-03	-1.698E+00	-1.302E+01	 1.302E+01	 3.688E-01	-1.345E-01	 1.708E-01	 2.699E-01	 1.331E+00	 2.770E-01	 7.176E+00	 3.897E+01	 2.784E-02	-8.245E-02	 1.698E+01	 8.861E-01	 2.472E-01	 4.214E+01	-9.571E-04	 3.941E-02
   6.256	 1.200E+01	 0.000E+00	 8.000E+00	 2.474E+02	 2.722E+00	-6.126E-03	-1.599E+00	-1.302E+01	 1.302E+01	 3.882E-01	-1.598E-01	 1.449E-01	 2.694E-01	 1.332E+00	 2.770E-01	 7.176E+00	 3.937E+01	 2.763E-02	-8.245E-02	 1.698E+01	 8.861E-01	 2.473E-01	 4.213E+01	-9.567E-04	 3.941E-02
   6.264	 1.200E+01	 0.000E+00	 8.000E+00	 2.474E+02	 2.722E+00	-1.635E-02	-8.941E-01	-1.302E+01	 1.302E+01	 4.073E-01	-1.821E-01	 1.152E-01	 2.669E-01	 1.333E+00	 2.771E-01	 7.177E+00	 3.940E+01	 2.729E-02	-8.248E-02	 1.699E+01	 8.861E-01	 2.473E-01	 4.213E+01	-9.563E-04	 3.940E-02
   6.272	 1.200E+01	 0.000E+00	 8.000E+00	 2.474E+02	 2.722E+00	-2.003E-02	-4.759E-02	-1.302E+01	 1.302E+01	 4.254E-01	-2.006E-01	 8.297E-02	 2.626E-01	 1.333E+00	 2.771E-01	 7.178E+00	 3.902E+01	 2.691E-02	-8.252E-02	 1.699E+01	 8.862E-01	 2.474E-01	 4.211E+01	-9.558E-04	 3.939E-02
   6.280	 1.200E+01	 0.000E+00	 8.000E+00	 2.474E+02	 2.722E+00	-1.769E-02	 6.181E-01	-1.302E+01	 1.302E+01	 4.419E-01	-2.148E-01	 4.978E-02	 2.565E-01	 1.333E+00	 2.771E-01	 7.179E+00	 3.824E+01	 2.671E-02	-8.257E-02	 1.699E+01	 8.862E-01	 2.474E-01	 4.211E+01	-9.556E-04	 3.939E-02
   6.288	 1.200E+01	 0.000E+00	 8.000E+00	 2.474E+02	 2.722E+00	-1.015E-02	 1.237E+00	-1.302E+01	 1.302E+01	 4.558E-01	-2.238E-01	 1.759E-02	 2.489E-01	 1.332E+00	 2.771E-01	 7.179E+00	 3.737E+01	 2.670E-02	-8.260E-02	 1.698E+01	 8.861E-01	 2.473E-01	 4.212E+01	-9.563E-04	 3.940E-02
   6.296	 1.200E+01	 0.000E+00	 8.000E+00	 2.474E+02	 2.722E+00	 1.289E-03	 1.534E+00	-1.302E+01	 1.302E+01	 4.672E-01	-2.276E-01	-1.204E-02	 2.400E-01	 1.330E+00	 2.771E-01	 7.180E+00	 3.685E+01	 2.691E-02	-8.261E-02	 1.698E+01	 8.860E-01	 2.472E-01	 4.213E+01	-9.573E-04	 3.940E-02
   6.304	 1.200E+01	 0.000E+00	 8.000E+00	 2.474E+02	 2.722E+00	 1.285E-02	 1.246E+00	-1.302E+01	 1.302E+01	 4.760E-01	-2.257E-01	-3.828E-02	 2.303E-01	 1.329E+00	 2.771E-01	 7.180E+00	 3.689E+01	 2.726E-02	-8.259E-02	 1.698E+01	 8.859E-01	 2.471E-01	 4.214E+01	-9.579E-04	 3.941E-02
   6.312	 1.200E+01	 0.000E+00	 8.000E+00	 2.475E+02	 2.722E+00	 1.966E-02	 3.605E-01	-1.302E+01	 1.302E+01	 4.818E-01	-2.185E-01	-6.045E-02	 2.203E-01	 1.329E+00	 2.771E-01	 7.181E+00	 3.743E+01	 2.758E-02	-8.255E-02	 1.698E+01	 8.859E-01	 2.471E-01	 4.214E+01	-9.582E-04	 3.941E-02
   6.320	 1.200E+01	 0.000E+00	 8.000E+00	 2.475E+02	 2.722E+00	 1.800E-02	-7.952E-01	-1.302E+01	 1.302E+01	 4.842E-01	-2.062E-01	-7.798E-02	 2.107E-01	 1.329E+00	 2.771E-01	 7.182E+00	 3.823E+01	 2.776E-02	-8.250E-02	 1.698E+01	 8.859E-01	 2.471E-01	 4.214E+01	-9.580E-04	 3.940E-02
   6.328	 1.200E+01	 0.000E+00	 8.000E+00	 2.475E+02	 2.722E+00	 8.130E-03	-1.548E+00	-1.302E+01	 1.302E+01	 4.827E-01	-1.891E-01	-8.971E-02	 2.018E-01	 1.331E+00	 2.772E-01	 7.183E+00	 3.896E+01	 2.776E-02	-8.247E-02	 1.698E+01	 8.860E-01	 2.471E-01	 4.213E+01	-9.576E-04	 3.940E-02
   6.336	 1.200E+01	 0.000E+00	 8.000E+00	 2.475E+02	 2.722E+00	-4.784E-03	-1.536E+00	-1.301E+01	 1.301E+01	 4.772E-01	-1.679E-01	-9.468E-02	 1.940E-01	 1.332E+00	 2.772E-01	 7.183E+00	 3.939E+01	 2.758E-02	-8.247E-02	 1.698E+01	 8.860E-01	 2.472E-01	 4.212E+01	-9.572E-04	 3.939E-02
   6.344	 1.200E+01	 0.000E+00	 8.000E+00	 2.475E+02	 2.722E+00	-1.478E-02	-8.878E-01	-1.301E+01	 1.301E+01	 4.680E-01	-1.435E-01	-9.223E-02	 1.874E-01	 1.333E+00	 2.772E-01	 7.184E+00	 3.946E+01	 2.725E-02	-8.250E-02	 1.698E+01	 8.860E-01	 2.472E-01	 4.212E+01	-9.568E-04	 3.939E-02
   6.352	 1.200E+01	 0.000E+00	 8.000E+00	 2.475E+02	 2.722E+00	-1.849E-02	-3.714E-02	-1.301E+01	 1.301E+01	 4.555E-01	-1.168E-01	-8.262E-02	 1.825E-01	 1.334E+00	 2.772E-01	 7.185E+00	 3.914E+01	 2.686E-02	-8.254E-02	 1.698E+01	 8.861E-01	 2.473E-01	 4.211E+01	-9.563E-04	 3.938E-02
   6.360	 1.200E+01	 0.000E+00	 8.000E+00	 2.475E+02	 2.722E+00	-1.611E-02	 6.222E-01	-1.301E+01	 1.301E+01	 4.398E-01	-8.914E-02	-6.679E-02	 1.794E-01	 1.334E+00	 2.772E-01	 7.186E+00	 3.837E+01	 2.665E-02	-8.258E-02	 1.698E+01	 8.861E-01	 2.473E-01	 4.210E+01	-9.561E-04	 3.938E-02
   6.368	 1.200E+01	 0.000E+00	 8.000E+00	 2.475E+02	 2.722E+00	-8.617E-03	 1.235E+00	-1.301E+01	 1.301E+01	 4.218E-01	-6.199E-02	-4.585E-02	 1.781E-01	 1.332E+00	 2.772E-01	 7.186E+00	 3.751E+01	 2.662E-02	-8.261E-02	 1.698E+01	 8.860E-01	 2.472E-01	 4.211E+01	-9.567E-04	 3.938E-02
   6.376	 1.200E+01	 0.000E+00	 8.000E+00	 2.475E+02	 2.722E+00	 2.943E-03	 1.573E+00	-1.301E+01	 1.301E+01	 4.024E-01	-3.661E-02	-2.071E-02	 1.786E-01	 1.331E+00	 2.772E-01	 7.187E+00	 3.696E+01	 2.681E-02	-8.261E-02	 1.698E+01	 8.859E-01	 2.471E-01	 4.212E+01	-9.577E-04	 3.939E-02
   6.384	 1.200E+01	 0.000E+00	 8.000E+00	 2.476E+02	 2.722E+00	 1.507E-02	 1.349E+00	-1.301E+01	 1.301E+01	 3.824E-01	-1.396E-02	 7.681E-03	 1.810E-01	 1.329E+00	 2.772E-01	 7.187E+00	 3.694E+01	 2.715E-02	-8.259E-02	 1.697E+01	 8.858E-01	 2.470E-01	 4.213E+01	-9.584E-04	 3.939E-02
   6.392	 1.200E+01	 0.000E+00	 8.000E+00	 2.476E+02	 2.722E+00	 2.290E-02	 5.116E-01	-1.301E+01	 1.301E+01	 3.628E-01	 5.308E-03	 3.872E-02	 1.854E-01	 1.329E+00	 2.773E-01	 7.188E+00	 3.742E+01	 2.748E-02	-8.254E-02	 1.697E+01	 8.858E-01	 2.470E-01	 4.214E+01	-9.587E-04	 3.939E-02
   6.400	 1.200E+01	 0.000E+00	 8.000E+00	 2.476E+02	 2.722E+00	 2.243E-02	-6.438E-01	-1.301E+01	 1.301E+01	 3.446E-01	 2.071E-02	 7.136E-02	 1.916E-01	 1.330E+00	 2.773E-01	 7.188E+00	 3.821E+01	 2.768E-02	-8.249E-02	 1.697E+01	 8.858E-01	 2.470E-01	 4.213E+01	-9.585E-04	 3.939E-02
   6.408	 1.200E+01	 0.000E+00	 8.000E+00	 2.476E+02	 2.722E+00	 1.341E-02	-1.489E+00	-1.301E+01	 1.301E+01	 3.285E-01	 3.127E-02	 1.040E-01	 1.992E-01	 1.331E+00	 2.773E-01	 7.189E+00	 3.896E+01	 2.771E-02	-8.244E-02	 1.697E+01	 8.858E-01	 2.470E-01	 4.212E+01	-9.581E-04	 3.939E-02
   6.416	 1.200E+01	 0.000E+00	 8.000E+00	 2.476E+02	 2.722E+00	 5.664E-04	-1.577E+00	-1.301E+01	 1.301E+01	 3.156E-01	 3.617E-02	 1.348E-01	 2.079E-01	 1.332E+00	 2.773E-01	 7.190E+00	 3.944E+01	 2.755E-02	-8.243E-02	 1.698E+01	 8.859E-01	 2.471E-01	 4.212E+01	-9.577E-04	 3.938E-02
   6.424	 1.200E+01	 0.000E+00	 8.000E+00	 2.476E+02	 2.722E+00	-1.004E-02	-9.914E-01	-1.301E+01	 1.301E+01	 3.062E-01	 3.502E-02	 1.622E-01	 2.170E-01	 1.333E+00	 2.773E-01	 7.191E+00	 3.955E+01	 2.723E-02	-8.244E-02	 1.698E+01	 8.859E-01	 2.471E-01	 4.211E+01	-9.574E-04	 3.938E-02
   6.432	 1.200E+01	 0.000E+00	 8.000E+00	 2.476E+02	 2.722E+00	-1.469E-02	-1.615E-01	-1.301E+01	 1.301E+01	 3.006E-01	 2.788E-02	 1.852E-01	 2.263E-01	 1.334E+00	 2.773E-01	 7.192E+00	 3.925E+01	 2.685E-02	-8.247E-02	 1.698E+01	 8.860E-01	 2.471E-01	 4.210E+01	-9.569E-04	 3.937E-02
   6.440	 1.200E+01	 0.000E+00	 8.000E+00	 2.476E+02	 2.722E+00	-1.321E-02	 5.021E-01	-1.301E+01	 1.301E+01	 2.992E-01	 1.527E-02	 2.031E-01	 2.354E-01	 1.334E+00	 2.774E-01	 7.193E+00	 3.852E+01	 2.662E-02	-8.251E-02	 1.698E+01	 8.860E-01	 2.472E-01	 4.209E+01	-9.566E-04	 3.936E-02
   6.448	 1.200E+01	 0.000E+00	 8.000E+00	 2.476E+02	 2.722E+00	-6.641E-03	 1.127E+00	-1.301E+01	 1.301E+01	 3.015E-01	-1.873E-03	 2.150E-01	 2.438E-01	 1.333E+00	 2.774E-01	 7.193E+00	 3.767E+01	 2.657E-02	-8.253E-02	 1.698E+01	 8.859E-01	 2.471E-01	 4.210E+01	-9.571E-04	 3.937E-02
   6.456	 1.200E+01	 0.000E+00	 8.000E+00	 2.477E+02	 2.722E+00	 4.191E-03	 1.508E+00	-1.301E+01	 1.301E+01	 3.072E-01	-2.259E-02	 2.206E-01	 2.514E-01	 1.331E+00	 2.774E-01	 7.194E+00	 3.707E+01	 2.674E-02	-8.253E-02	 1.697E+01	 8.858E-01	 2.470E-01	 4.211E+01	-9.581E-04	 3.937E-02
   6.464	 1.200E+01	 0.000E+00	 8.000E+00	 2.477E+02	 2.722E+00	 1.604E-02	 1.347E+00	-1.301E+01	 1.301E+01	 3.162E-01	-4.622E-02	 2.193E-01	 2.581E-01	 1.330E+00	 2.774E-01	 7.194E+00	 3.699E+01	 2.707E-02	-8.251E-02	 1.697E+01	 8.857E-01	 2.469E-01	 4.212E+01	-9.589E-04	 3.938E-02
   6.472	 1.200E+01	 0.000E+00	 8.000E+00	 2.477E+02	 2.722E+00	 2.404E-02	 5.513E-01	-1.301E+01	 1.301E+01	 3.288E-01	-7.207E-02	 2.115E-01	 2.635E-01	 1.329E+00	 2.774E-01	 7.194E+00	 3.743E+01	 2.741E-02	-8.246E-02	 1.697E+01	 8.857E-01	 2.468E-01	 4.213E+01	-9.592E-04	 3.938E-02
   6.480	 1.200E+01	 0.000E+00	 8.000E+00	 2.477E+02	 2.722E+00	 2.391E-02	-5.874E-01	-1.301E+01	 1.301E+01	 3.446E-01	-9.927E-02	 1.974E-01	 2.675E-01	 1.330E+00	 2.774E-01	 7.195E+00	 3.819E+01	 2.763E-02	-8.240E-02	 1.697E+01	 8.857E-01	 2.469E-01	 4.212E+01	-9.591E-04	 3.938E-02
   6.488	 1.200E+01	 0.000E+00	 8.000E+00	 2.477E+02	 2.722E+00	 1.500E-02	-1.513E+00	-1.301E+01	 1.301E+01	 3.628E-01	-1.265E-01	 1.778E-01	 2.697E-01	 1.331E+00	 2.774E-01	 7.196E+00	 3.897E+01	 2.768E-02	-8.235E-02	 1.697E+01	 8.857E-01	 2.469E-01	 4.212E+01	-9.587E-04	 3.937E-02
   6.496	 1.200E+01	 0.000E+00	 8.000E+00	 2.477E+02	 2.723E+00	 1.686E-03	-1.674E+00	-1.301E+01	 1.301E+01	 3.822E-01	-1.525E-01	 1.532E-01	 2.698E-01	 1.333E+00	 2.774E-01	 7.197E+00	 3.947E+01	 2.753E-02	-8.233E-02	 1.697E+01	 8.858E-01	 2.469E-01	 4.211E+01	-9.583E-04	 3.937E-02
   6.504	 1.200E+01	 0.000E+00	 8.000E+00	 2.477E+02	 2.722E+00	-9.882E-03	-1.128E+00	-1.301E+01	 1.301E+01	 4.015E-01	-1.758E-01	 1.245E-01	 2.679E-01	 1.333E+00	 2.775E-01	 7.198E+00	 3.961E+01	 2.723E-02	-8.235E-02	 1.697E+01	 8.858E-01	 2.470E-01	 4.210E+01	-9.579E-04	 3.936E-02
   6.512	 1.200E+01	 0.000E+00	 8.000E+00	 2.477E+02	 2.722E+00	-1.567E-02	-3.068E-01	-1.301E+01	 1.301E+01	 4.201E-01	-1.956E-01	 9.285E-02	 2.641E-01	 1.334E+00	 2.775E-01	 7.198E+00	 3.935E+01	 2.685E-02	-8.238E-02	 1.697E+01	 8.859E-01	 2.470E-01	 4.209E+01	-9.574E-04	 3.936E-02
   6.520	 1.200E+01	 0.000E+00	 8.000E+00	 2.477E+02	 2.722E+00	-1.522E-02	 3.726E-01	-1.301E+01	 1.301E+01	 4.373E-01	-2.112E-01	 5.972E-02	 2.585E-01	 1.334E+00	 2.775E-01	 7.199E+00	 3.865E+01	 2.661E-02	-8.242E-02	 1.698E+01	 8.859E-01	 2.471E-01	 4.209E+01	-9.571E-04	 3.935E-02
   6.528	 1.200E+01	 0.000E+00	 8.000E+00	 2.478E+02	 2.722E+00	-9.701E-03	 1.006E+00	-1.301E+01	 1.301E+01	 4.522E-01	-2.219E-01	 2.695E-02	 2.513E-01	 1.333E+00	 2.775E-01	 7.199E+00	 3.780E+01	 2.654E-02	-8.245E-02	 1.697E+01	 8.858E-01	 2.470E-01	 4.209E+01	-9.575E-04	 3.935E-02
   6.536	 1.200E+01	 0.000E+00	 8.000E+00	 2.478E+02	 2.722E+00	 3.130E-04	 1.435E+00	-1.301E+01	 1.301E+01	 4.645E-01	-2.273E-01	-3.608E-03	 2.427E-01	 1.332E+00	 2.775E-01	 7.200E+00	 3.717E+01	 2.668E-02	-8.246E-02	 1.697E+01	 8.857E-01	 2.469E-01	 4.210E+01	-9.585E-04	 3.936E-02
   6.544	 1.200E+01	 0.000E+00	 8.000E+00	 2.478E+02	 2.722E+00	 1.188E-02	 1.358E+00	-1.300E+01	 1.300E+01	 4.742E-01	-2.271E-01	-3.099E-02	 2.331E-01	 1.330E+00	 2.775E-01	 7.201E+00	 3.703E+01	 2.700E-02	-8.244E-02	 1.697E+01	 8.856E-01	 2.468E-01	 4.212E+01	-9.593E-04	 3.937E-02
   6.552	 1.200E+01	 0.000E+00	 8.000E+00	 2.478E+02	 2.722E+00	 2.022E-02	 6.295E-01	-1.300E+01	 1.300E+01	 4.809E-01	-2.213E-01	-5.444E-02	 2.232E-01	 1.329E+00	 2.775E-01	 7.201E+00	 3.741E+01	 2.734E-02	-8.240E-02	 1.696E+01	 8.856E-01	 2.467E-01	 4.212E+01	-9.596E-04	 3.937E-02
   6.560	 1.200E+01	 0.000E+00	 8.000E+00	 2.478E+02	 2.722E+00	 2.080E-02	-4.876E-01	-1.300E+01	 1.300E+01	 4.844E-01	-2.104E-01	-7.342E-02	 2.134E-01	 1.330E+00	 2.775E-01	 7.202E+00	 3.814E+01	 2.757E-02	-8.235E-02	 1.697E+01	 8.856E-01	 2.467E-01	 4.212E+01	-9.596E-04	 3.937E-02
   6.568	 1.200E+01	 0.000E+00	 8.000E+00	 2.478E+02	 2.723E+00	 1.242E-02	-1.476E+00	-1.300E+01	 1.300E+01	 4.841E-01	-1.947E-01	-8.691E-02	 2.041E-01	 1.331E+00	 2.776E-01	 7.202E+00	 3.895E+01	 2.765E-02	-8.231E-02	 1.697E+01	 8.856E-01	 2.468E-01	 4.211E+01	-9.592E-04	 3.936E-02
   6.576	 1.200E+01	 0.000E+00	 8.000E+00	 2.478E+02	 2.723E+00	-8.072E-04	-1.695E+00	-1.300E+01	 1.300E+01	 4.799E-01	-1.745E-01	-9.387E-02	 1.959E-01	 1.333E+00	 2.776E-01	 7.203E+00	 3.948E+01	 2.752E-02	-8.230E-02	 1.697E+01	 8.857E-01	 2.468E-01	 4.210E+01	-9.587E-04	 3.936E-02
   6.584	 1.200E+01	 0.000E+00	 8.000E+00	 2.478E+02	 2.723E+00	-1.270E-02	-1.181E+00	-1.300E+01	 1.300E+01	 4.716E-01	-1.509E-01	-9.356E-02	 1.889E-01	 1.334E+00	 2.776E-01	 7.204E+00	 3.964E+01	 2.722E-02	-8.232E-02	 1.697E+01	 8.857E-01	 2.469E-01	 4.210E+01	-9.584E-04	 3.935E-02
   6.592	 1.200E+01	 0.000E+00	 8.000E+00	 2.478E+02	 2.722E+00	-1.893E-02	-3.572E-01	-1.300E+01	 1.300E+01	 4.599E-01	-1.247E-01	-8.597E-02	 1.835E-01	 1.334E+00	 2.776E-01	 7.205E+00	 3.940E+01	 2.685E-02	-8.236E-02	 1.697E+01	 8.858E-01	 2.469E-01	 4.209E+01	-9.579E-04	 3.935E-02
   6.600	 1.200E+01	 0.000E+00	 8.000E+00	 2.478E+02	 2.722E+00	-1.866E-02	 3.690E-01	-1.300E+01	 1.300E+01	 4.451E-01	-9.718E-02	-7.184E-02	 1.798E-01	 1.334E+00	 2.776E-01	 7.206E+00	 3.874E+01	 2.658E-02	-8.240E-02	 1.697E+01	 8.858E-01	 2.470E-01	 4.208E+01	-9.575E-04	 3.934E-02
   6.608	 1.200E+01	 0.000E+00	 8.000E+00	 2.479E+02	 2.722E+00	-1.320E-02	 1.008E+00	-1.300E+01	 1.300E+01	 4.277E-01	-6.966E-02	-5.227E-02	 1.780E-01	 1.334E+00	 2.776E-01	 7.206E+00	 3.790E+01	 2.649E-02	-8.244E-02	 1.697E+01	 8.857E-01	 2.469E-01	 4.208E+01	-9.579E-04	 3.934E-02
   6.616	 1.200E+01	 0.000E+00	 8.000E+00	 2.479E+02	 2.722E+00	-3.046E-03	 1.478E+00	-1.300E+01	 1.300E+01	 4.086E-01	-4.361E-02	-2.815E-02	 1.779E-01	 1.332E+00	 2.776E-01	 7.207E+00	 3.724E+01	 2.661E-02	-8.246E-02	 1.697E+01	 8.856E-01	 2.468E-01	 4.210E+01	-9.588E-04	 3.935E-02
   6.624	 1.200E+01	 0.000E+00	 8.000E+00	 2.479E+02	 2.722E+00	 9.116E-03	 1.465E+00	-1.300E+01	 1.300E+01	 3.885E-01	-2.005E-02	-4.976E-04	 1.798E-01	 1.330E+00	 2.776E-01	 7.207E+00	 3.704E+01	 2.692E-02	-8.245E-02	 1.696E+01	 8.856E-01	 2.467E-01	 4.211E+01	-9.597E-04	 3.935E-02
   6.632	 1.200E+01	 0.000E+00	 8.000E+00	 2.479E+02	 2.722E+00	 1.855E-02	 7.885E-01	-1.300E+01	 1.300E+01	 3.686E-01	 2.454E-04	 3.000E-02	 1.837E-01	 1.329E+00	 2.777E-01	 7.207E+00	 3.737E+01	 2.727E-02	-8.241E-02	 1.696E+01	 8.855E-01	 2.466E-01	 4.211E+01	-9.601E-04	 3.936E-02
   6.640	 1.200E+01	 0.000E+00	 8.000E+00	 2.479E+02	 2.722E+00	 2.046E-02	-3.243E-01	-1.300E+01	 1.300E+01	 3.498E-01	 1.681E-02	 6.241E-02	 1.894E-01	 1.330E+00	 2.777E-01	 7.208E+00	 3.808E+01	 2.752E-02	-8.237E-02	 1.696E+01	 8.855E-01	 2.466E-01	 4.211E+01	-9.600E-04	 3.935E-02
   6.648	 1.200E+01	 0.000E+00	 8.000E+00	 2.479E+02	 2.723E+00	 1.328E-02	-1.363E+00	-1.300E+01	 1.300E+01	 3.328E-01	 2.882E-02	 9.528E-02	 1.967E-01	 1.331E+00	 2.777E-01	 7.209E+00	 3.890E+01	 2.762E-02	-8.233E-02	 1.696E+01	 8.856E-01	 2.467E-01	 4.210E+01	-9.596E-04	 3.935E-02
   6.656	 1.200E+01	 0.000E+00	 8.000E+00	 2.479E+02	 2.723E+00	 6.794E-04	-1.660E+00	-1.300E+01	 1.300E+01	 3.189E-01	 3.531E-02	 1.267E-01	 2.052E-01	 1.333E+00	 2.777E-01	 7.210E+00	 3.946E+01	 2.751E-02	-8.231E-02	 1.696E+01	 8.856E-01	 2.467E-01	 4.209E+01	-9.592E-04	 3.934E-02
   6.664	 1.200E+01	 0.000E+00	 8.000E+00	 2.479E+02	 2.723E+00	-1.116E-02	-1.199E+00	-1.300E+01	 1.300E+01	 3.085E-01	 3.583E-02	 1.552E-01	 2.143E-01	 1.334E+00	 2.777E-01	 7.210E+00	 3.965E+01	 2.722E-02	-8.233E-02	 1.697E+01	 8.856E-01	 2.468E-01	 4.209E+01	-9.588E-04	 3.934E-02
   6.672	 1.200E+01	 0.000E+00	 8.000E+00	 2.479E+02	 2.722E+00	-1.760E-02	-3.849E-01	-1.300E+01	 1.300E+01	 3.018E-01	 3.029E-02	 1.795E-01	 2.235E-01	 1.334E+00	 2.777E-01	 7.211E+00	 3.944E+01	 2.686E-02	-8.236E-02	 1.697E+01	 8.857E-01	 2.468E-01	 4.208E+01	-9.583E-04	 3.933E-02
   6.680	 1.200E+01	 0.000E+00	 8.000E+00	 2.479E+02	 2.722E+00	-1.753E-02	 3.566E-01	-1.300E+01	 1.300E+01	 2.993E-01	 1.912E-02	 1.990E-01	 2.327E-01	 1.335E+00	 2.778E-01	 7.212E+00	 3.882E+01	 2.657E-02	-8.241E-02	 1.697E+01	 8.857E-01	 2.469E-01	 4.207E+01	-9.579E-04	 3.933E-02
   6.688	 1.200E+01	 0.000E+00	 8.000E+00	 2.480E+02	 2.722E+00	-1.238E-02	 9.468E-01	-1.300E+01	 1.300E+01	 3.006E-01	 3.075E-03	 2.126E-01	 2.414E-01	 1.334E+00	 2.778E-01	 7.212E+00	 3.799E+01	 2.648E-02	-8.244E-02	 1.697E+01	 8.857E-01	 2.468E-01	 4.207E+01	-9.582E-04	 3.933E-02
   6.696	 1.200E+01	 0.000E+00	 8.000E+00	 2.480E+02	 2.722E+00	-2.645E-03	 1.445E+00	-1.300E+01	 1.300E+01	 3.052E-01	-1.678E-02	 2.199E-01	 2.493E-01	 1.332E+00	 2.778E-01	 7.213E+00	 3.733E+01	 2.658E-02	-8.246E-02	 1.696E+01	 8.856E-01	 2.467E-01	 4.209E+01	-9.592E-04	 3.934E-02
   6.704	 1.200E+01	 0.000E+00	 8.000E+00	 2.480E+02	 2.722E+00	 9.476E-03	 1.492E+00	-1.300E+01	 1.300E+01	 3.134E-01	-3.976E-02	 2.205E-01	 2.563E-01	 1.331E+00	 2.778E-01	 7.213E+00	 3.709E+01	 2.686E-02	-8.245E-02	 1.696E+01	 8.855E-01	 2.466E-01	 4.210E+01	-9.601E-04	 3.934E-02
   6.712	 1.200E+01	 0.000E+00	 8.000E+00	 2.480E+02	 2.722E+00	 1.943E-02	 8.826E-01	-1.300E+01	 1.300E+01	 3.251E-01	-6.516E-02	 2.143E-01	 2.621E-01	 1.330E+00	 2.778E-01	 7.214E+00	 3.735E+01	 2.722E-02	-8.241E-02	 1.696E+01	 8.854E-01	 2.465E-01	 4.210E+01	-9.605E-04	 3.935E-02
   6.720	 1.200E+01	 0.000E+00	 8.000E+00	 2.480E+02	 2.722E+00	 2.216E-02	-2.187E-01	-1.300E+01	 1.300E+01	 3.401E-01	-9.217E-02	 2.017E-01	 2.665E-01	 1.330E+00	 2.778E-01	 7.214E+00	 3.803E+01	 2.748E-02	-8.236E-02	 1.696E+01	 8.854E-01	 2.465E-01	 4.210E+01	-9.605E-04	 3.934E-02
   6.728	 1.200E+01	 0.000E+00	 8.000E+00	 2.480E+02	 2.723E+00	 1.578E-02	-1.297E+00	-1.300E+01	 1.300E+01	 3.578E-01	-1.196E-01	 1.835E-01	 2.692E-01	 1.331E+00	 2.778E-01	 7.215E+00	 3.886E+01	 2.760E-02	-8.231E-02	 1.696E+01	 8.855E-01	 2.466E-01	 4.210E+01	-9.601E-04	 3.934E-02
   6.736	 1.200E+01	 0.000E+00	 8.000E+00	 2.480E+02	 2.723E+00	 3.369E-03	-1.680E+00	-1.300E+01	 1.300E+01	 3.771E-01	-1.460E-01	 1.600E-01	 2.699E-01	 1.333E+00	 2.778E-01	 7.216E+00	 3.946E+01	 2.751E-02	-8.229E-02	 1.696E+01	 8.855E-01	 2.466E-01	 4.209E+01	-9.596E-04	 3.933E-02
   6.744	 1.200E+01	 0.000E+00	 8.000E+00	 2.480E+02	 2.723E+00	-8.906E-03	-1.291E+00	-1.300E+01	 1.300E+01	 3.966E-01	-1.702E-01	 1.323E-01	 2.685E-01	 1.334E+00	 2.778E-01	 7.217E+00	 3.968E+01	 2.723E-02	-8.230E-02	 1.696E+01	 8.855E-01	 2.467E-01	 4.208E+01	-9.593E-04	 3.933E-02
   6.752	 1.200E+01	 0.000E+00	 8.000E+00	 2.480E+02	 2.723E+00	-1.615E-02	-4.870E-01	-1.299E+01	 1.299E+01	 4.155E-01	-1.910E-01	 1.012E-01	 2.651E-01	 1.334E+00	 2.779E-01	 7.217E+00	 3.949E+01	 2.687E-02	-8.233E-02	 1.696E+01	 8.856E-01	 2.467E-01	 4.207E+01	-9.588E-04	 3.932E-02
   6.760	 1.200E+01	 0.000E+00	 8.000E+00	 2.480E+02	 2.722E+00	-1.689E-02	 2.555E-01	-1.299E+01	 1.299E+01	 4.332E-01	-2.078E-01	 6.830E-02	 2.600E-01	 1.335E+00	 2.779E-01	 7.218E+00	 3.889E+01	 2.659E-02	-8.237E-02	 1.697E+01	 8.856E-01	 2.468E-01	 4.206E+01	-9.583E-04	 3.932E-02
   6.768	 1.200E+01	 0.000E+00	 8.000E+00	 2.481E+02	 2.722E+00	-1.249E-02	 8.688E-01	-1.299E+01	 1.299E+01	 4.489E-01	-2.199E-01	 3.521E-02	 2.532E-01	 1.334E+00	 2.779E-01	 7.218E+00	 3.808E+01	 2.648E-02	-8.241E-02	 1.696E+01	 8.856E-01	 2.467E-01	 4.207E+01	-9.586E-04	 3.932E-02
   6.776	 1.200E+01	 0.000E+00	 8.000E+00	 2.481E+02	 2.722E+00	-3.338E-03	 1.387E+00	-1.299E+01	 1.299E+01	 4.620E-01	-2.266E-01	 3.940E-03	 2.449E-01	 1.333E+00	 2.779E-01	 7.219E+00	 3.740E+01	 2.657E-02	-8.243E-02	 1.696E+01	 8.855E-01	 2.466E-01	 4.208E+01	-9.595E-04	 3.932E-02
   6.784	 1.200E+01	 0.000E+00	 8.000E+00	 2.481E+02	 2.722E+00	 8.511E-03	 1.485E+00	-1.299E+01	 1.299E+01	 4.724E-01	-2.279E-01	-2.437E-02	 2.355E-01	 1.331E+00	 2.779E-01	 7.219E+00	 3.713E+01	 2.683E-02	-8.242E-02	 1.696E+01	 8.854E-01	 2.465E-01	 4.209E+01	-9.604E-04	 3.933E-02
   6.792	 1.200E+01	 0.000E+00	 8.000E+00	 2.481E+02	 2.722E+00	 1.866E-02	 9.383E-01	-1.299E+01	 1.299E+01	 4.798E-01	-2.234E-01	-4.893E-02	 2.256E-01	 1.330E+00	 2.779E-01	 7.220E+00	 3.734E+01	 2.718E-02	-8.238E-02	 1.696E+01	 8.854E-01	 2.465E-01	 4.210E+01	-9.608E-04	 3.933E-02
   6.800	 1.200E+01	 0.000E+00	 8.000E+00	 2.481E+02	 2.722E+00	 2.198E-02	-1.351E-01	-1.299E+01	 1.299E+01	 4.842E-01	-2.138E-01	-6.914E-02	 2.157E-01	 1.330E+00	 2.779E-01	 7.220E+00	 3.798E+01	 2.745E-02	-8.233E-02	 1.695E+01	 8.853E-01	 2.465E-01	 4.210E+01	-9.609E-04	 3.933E-02
   6.808	 1.200E+01	 0.000E+00	 8.000E+00	 2.481E+02	 2.723E+00	 1.617E-02	-1.253E+00	-1.299E+01	 1.299E+01	 4.849E-01	-1.992E-01	-8.409E-02	 2.062E-01	 1.331E+00	 2.779E-01	 7.221E+00	 3.881E+01	 2.760E-02	-8.229E-02	 1.696E+01	 8.854E-01	 2.465E-01	 4.209E+01	-9.605E-04	 3.933E-02
   6.816	 1.200E+01	 0.000E+00	 8.000E+00	 2.481E+02	 2.723E+00	 3.897E-03	-1.697E+00	-1.299E+01	 1.299E+01	 4.817E-01	-1.800E-01	-9.270E-02	 1.977E-01	 1.333E+00	 2.780E-01	 7.222E+00	 3.945E+01	 2.752E-02	-8.227E-02	 1.696E+01	 8.854E-01	 2.465E-01	 4.208E+01	-9.600E-04	 3.932E-02
   6.824	 1.200E+01	 0.000E+00	 8.000E+00	 2.481E+02	 2.723E+00	-8.746E-03	-1.361E+00	-1.299E+01	 1.299E+01	 4.744E-01	-1.571E-01	-9.419E-02	 1.903E-01	 1.334E+00	 2.780E-01	 7.223E+00	 3.970E+01	 2.726E-02	-8.227E-02	 1.696E+01	 8.855E-01	 2.466E-01	 4.207E+01	-9.596E-04	 3.932E-02
   6.832	 1.200E+01	 0.000E+00	 8.000E+00	 2.481E+02	 2.723E+00	-1.667E-02	-5.837E-01	-1.299E+01	 1.299E+01	 4.634E-01	-1.314E-01	-8.836E-02	 1.845E-01	 1.335E+00	 2.780E-01	 7.223E+00	 3.954E+01	 2.690E-02	-8.231E-02	 1.696E+01	 8.855E-01	 2.466E-01	 4.207E+01	-9.592E-04	 3.931E-02
   6.840	 1.200E+01	 0.000E+00	 8.000E+00	 2.481E+02	 2.722E+00	-1.808E-02	 1.882E-01	-1.299E+01	 1.299E+01	 4.493E-01	-1.041E-01	-7.579E-02	 1.804E-01	 1.335E+00	 2.780E-01	 7.224E+00	 3.896E+01	 2.660E-02	-8.235E-02	 1.696E+01	 8.855E-01	 2.467E-01	 4.206E+01	-9.587E-04	 3.931E-02
   6.848	 1.200E+01	 0.000E+00	 8.000E+00	 2.482E+02	 2.722E+00	-1.426E-02	 8.032E-01	-1.299E+01	 1.299E+01	 4.324E-01	-7.635E-02	-5.750E-02	 1.781E-01	 1.335E+00	 2.780E-01	 7.224E+00	 3.816E+01	 2.648E-02	-8.239E-02	 1.696E+01	 8.855E-01	 2.466E-01	 4.206E+01	-9.588E-04	 3.931E-02
   6.856	 1.200E+01	 0.000E+00	 8.000E+00	 2.482E+02	 2.722E+00	-5.528E-03	 1.354E+00	-1.299E+01	 1.299E+01	 4.135E-01	-4.981E-02	-3.440E-02	 1.776E-01	 1.333E+00	 2.780E-01	 7.225E+00	 3.747E+01	 2.655E-02	-8.241E-02	 1.696E+01	 8.854E-01	 2.465E-01	 4.207E+01	-9.597E-04	 3.931E-02
   6.864	 1.200E+01	 0.000E+00	 8.000E+00	 2.482E+02	 2.722E+00	 6.272E-03	 1.507E+00	-1.299E+01	 1.299E+01	 3.936E-01	-2.552E-02	-7.424E-03	 1.789E-01	 1.331E+00	 2.780E-01	 7.225E+00	 3.715E+01	 2.680E-02	-8.241E-02	 1.695E+01	 8.853E-01	 2.464E-01	 4.208E+01	-9.607E-04	 3.932E-02
   6.872	 1.200E+01	 0.000E+00	 8.000E+00	 2.482E+02	 2.722E+00	 1.685E-02	 1.018E+00	-1.299E+01	 1.299E+01	 3.735E-01	-4.345E-03	 2.256E-02	 1.823E-01	 1.330E+00	 2.780E-01	 7.226E+00	 3.731E+01	 2.715E-02	-8.238E-02	 1.695E+01	 8.853E-01	 2.464E-01	 4.209E+01	-9.612E-04	 3.932E-02
   6.880	 1.200E+01	 0.000E+00	 8.000E+00	 2.482E+02	 2.723E+00	 2.089E-02	-4.990E-02	-1.299E+01	 1.299E+01	 3.543E-01	 1.320E-02	 5.474E-02	 1.876E-01	 1.330E+00	 2.780E-01	 7.226E+00	 3.793E+01	 2.743E-02	-8.233E-02	 1.695E+01	 8.853E-01	 2.464E-01	 4.209E+01	-9.612E-04	 3.932E-02
   6.888	 1.200E+01	 0.000E+00	 8.000E+00	 2.482E+02	 2.723E+00	 1.578E-02	-1.187E+00	-1.299E+01	 1.299E+01	 3.367E-01	 2.641E-02	 8.770E-02	 1.946E-01	 1.331E+00	 2.781E-01	 7.227E+00	 3.876E+01	 2.759E-02	-8.229E-02	 1.695E+01	 8.853E-01	 2.464E-01	 4.208E+01	-9.609E-04	 3.932E-02
   6.896	 1.200E+01	 0.000E+00	 8.000E+00	 2.482E+02	 2.723E+00	 3.823E-03	-1.685E+00	-1.299E+01	 1.299E+01	 3.220E-01	 3.423E-02	 1.196E-01	 2.029E-01	 1.333E+00	 2.781E-01	 7.228E+00	 3.941E+01	 2.753E-02	-8.226E-02	 1.695E+01	 8.854E-01	 2.465E-01	 4.207E+01	-9.604E-04	 3.931E-02
   6.904	 1.200E+01	 0.000E+00	 8.000E+00	 2.482E+02	 2.723E+00	-8.950E-03	-1.394E+00	-1.299E+01	 1.299E+01	 3.107E-01	 3.616E-02	 1.489E-01	 2.119E-01	 1.334E+00	 2.781E-01	 7.229E+00	 3.970E+01	 2.728E-02	-8.227E-02	 1.696E+01	 8.854E-01	 2.465E-01	 4.207E+01	-9.600E-04	 3.931E-02
   6.912	 1.200E+01	 0.000E+00	 8.000E+00	 2.482E+02	 2.723E+00	-1.721E-02	-6.309E-01	-1.299E+01	 1.299E+01	 3.031E-01	 3.201E-02	 1.744E-01	 2.212E-01	 1.335E+00	 2.781E-01	 7.229E+00	 3.955E+01	 2.693E-02	-8.231E-02	 1.696E+01	 8.854E-01	 2.465E-01	 4.206E+01	-9.595E-04	 3.930E-02
   6.920	 1.200E+01	 0.000E+00	 8.000E+00	 2.482E+02	 2.722E+00	-1.893E-02	 1.639E-01	-1.299E+01	 1.299E+01	 2.996E-01	 2.210E-02	 1.951E-01	 2.305E-01	 1.335E+00	 2.781E-01	 7.230E+00	 3.901E+01	 2.661E-02	-8.235E-02	 1.696E+01	 8.855E-01	 2.466E-01	 4.205E+01	-9.590E-04	 3.930E-02
   6.928	 1.200E+01	 0.000E+00	 8.000E+00	 2.483E+02	 2.722E+00	-1.532E-02	 7.556E-01	-1.299E+01	 1.299E+01	 3.000E-01	 7.108E-03	 2.103E-01	 2.394E-01	 1.335E+00	 2.781E-01	 7.230E+00	 3.821E+01	 2.649E-02	-8.239E-02	 1.696E+01	 8.855E-01	 2.466E-01	 4.205E+01	-9.591E-04	 3.930E-02
   6.936	 1.200E+01	 0.000E+00	 8.000E+00	 2.483E+02	 2.722E+00	-6.944E-03	 1.322E+00	-1.299E+01	 1.299E+01	 3.039E-01	-1.193E-02	 2.191E-01	 2.475E-01	 1.333E+00	 2.781E-01	 7.231E+00	 3.751E+01	 2.655E-02	-8.242E-02	 1.696E+01	 8.854E-01	 2.465E-01	 4.206E+01	-9.600E-04	 3.930E-02
   6.944	 1.200E+01	 0.000E+00	 8.000E+00	 2.483E+02	 2.722E+00	 4.818E-03	 1.530E+00	-1.299E+01	 1.299E+01	 3.112E-01	-3.431E-02	 2.212E-01	 2.546E-01	 1.331E+00	 2.781E-01	 7.231E+00	 3.717E+01	 2.678E-02	-8.242E-02	 1.695E+01	 8.853E-01	 2.464E-01	 4.208E+01	-9.609E-04	 3.931E-02
   6.952	 1.200E+01	 0.000E+00	 8.000E+00	 2.483E+02	 2.722E+00	 1.582E-02	 1.098E+00	-1.298E+01	 1.298E+01	 3.222E-01	-5.932E-02	 2.164E-01	 2.607E-01	 1.330E+00	 2.781E-01	 7.232E+00	 3.729E+01	 2.712E-02	-8.239E-02	 1.695E+01	 8.852E-01	 2.463E-01	 4.208E+01	-9.615E-04	 3.931E-02
   6.960	 1.200E+01	 0.000E+00	 8.000E+00	 2.483E+02	 2.722E+00	 2.060E-02	 4.481E-02	-1.298E+01	 1.298E+01	 3.365E-01	-8.616E-02	 2.051E-01	 2.655E-01	 1.330E+00	 2.782E-01	 7.232E+00	 3.787E+01	 2.742E-02	-8.235E-02	 1.695E+01	 8.852E-01	 2.463E-01	 4.208E+01	-9.615E-04	 3.931E-02
   6.968	 1.200E+01	 0.000E+00	 8.000E+00	 2.483E+02	 2.723E+00	 1.616E-02	-1.126E+00	-1.298E+01	 1.298E+01	 3.538E-01	-1.136E-01	 1.880E-01	 2.686E-01	 1.331E+00	 2.782E-01	 7.233E+00	 3.870E+01	 2.760E-02	-8.230E-02	 1.695E+01	 8.852E-01	 2.463E-01	 4.208E+01	-9.612E-04	 3.931E-02
   6.976	 1.200E+01	 0.000E+00	 8.000E+00	 2.483E+02	 2.723E+00	 4.476E-03	-1.662E+00	-1.298E+01	 1.298E+01	 3.729E-01	-1.404E-01	 1.657E-01	 2.697E-01	 1.333E+00	 2.782E-01	 7.234E+00	 3.937E+01	 2.755E-02	-8.228E-02	 1.695E+01	 8.853E-01	 2.464E-01	 4.207E+01	-9.607E-04	 3.930E-02
   6.984	 1.200E+01	 0.000E+00	 8.000E+00	 2.483E+02	 2.723E+00	-8.335E-03	-1.411E+00	-1.298E+01	 1.298E+01	 3.925E-01	-1.652E-01	 1.388E-01	 2.688E-01	 1.334E+00	 2.782E-01	 7.234E+00	 3.968E+01	 2.731E-02	-8.228E-02	 1.695E+01	 8.853E-01	 2.464E-01	 4.206E+01	-9.602E-04	 3.930E-02
   6.992	 1.200E+01	 0.000E+00	 8.000E+00	 2.483E+02	 2.723E+00	-1.673E-02	-6.481E-01	-1.298E+01	 1.298E+01	 4.116E-01	-1.868E-01	 1.084E-01	 2.658E-01	 1.335E+00	 2.782E-01	 7.235E+00	 3.956E+01	 2.696E-02	-8.232E-02	 1.696E+01	 8.854E-01	 2.465E-01	 4.205E+01	-9.598E-04	 3.929E-02
   7.000	 1.200E+01	 0.000E+00	 8.000E+00	 2.483E+02	 2.722E+00	-1.857E-02	 1.635E-01	-1.298E+01	 1.298E+01	 4.297E-01	-2.046E-01	 7.569E-02	 2.611E-01	 1.335E+00	 2.782E-01	 7.236E+00	 3.904E+01	 2.663E-02	-8.236E-02	 1.696E+01	 8.854E-01	 2.465E-01	 4.204E+01	-9.593E-04	 3.929E-02
   7.008	 1.200E+01	 0.000E+00	 8.000E+00	 2.483E+02	 2.722E+00	-1.507E-02	 7.220E-01	-1.298E+01	 1.298E+01	 4.461E-01	-2.179E-01	 4.236E-02	 2.546E-01	 1.335E+00	 2.782E-01	 7.236E+00	 3.827E+01	 2.650E-02	-8.240E-02	 1.696E+01	 8.854E-01	 2.465E-01	 4.204E+01	-9.593E-04	 3.929E-02
   7.016	 1.200E+01	 0.000E+00	 8.000E+00	 2.484E+02	 2.722E+00	-6.930E-03	 1.292E+00	-1.298E+01	 1.298E+01	 4.598E-01	-2.259E-01	 1.047E-02	 2.466E-01	 1.334E+00	 2.782E-01	 7.237E+00	 3.757E+01	 2.654E-02	-8.243E-02	 1.695E+01	 8.853E-01	 2.464E-01	 4.206E+01	-9.601E-04	 3.929E-02
   7.024	 1.200E+01	 0.000E+00	 8.000E+00	 2.484E+02	 2.722E+00	 4.739E-03	 1.544E+00	-1.298E+01	 1.298E+01	 4.707E-01	-2.283E-01	-1.860E-02	 2.374E-01	 1.332E+00	 2.783E-01	 7.237E+00	 3.719E+01	 2.676E-02	-8.243E-02	 1.695E+01	 8.852E-01	 2.463E-01	 4.207E+01	-9.611E-04	 3.930E-02
   7.032	 1.200E+01	 0.000E+00	 8.000E+00	 2.484E+02	 2.722E+00	 1.612E-02	 1.178E+00	-1.298E+01	 1.298E+01	 4.788E-01	-2.250E-01	-4.405E-02	 2.276E-01	 1.330E+00	 2.783E-01	 7.237E+00	 3.726E+01	 2.710E-02	-8.240E-02	 1.695E+01	 8.852E-01	 2.462E-01	 4.208E+01	-9.617E-04	 3.930E-02
   7.040	 1.200E+01	 0.000E+00	 8.000E+00	 2.484E+02	 2.722E+00	 2.173E-02	 1.609E-01	-1.298E+01	 1.298E+01	 4.838E-01	-2.164E-01	-6.521E-02	 2.176E-01	 1.330E+00	 2.783E-01	 7.238E+00	 3.781E+01	 2.740E-02	-8.235E-02	 1.695E+01	 8.851E-01	 2.462E-01	 4.208E+01	-9.618E-04	 3.930E-02
   7.048	 1.200E+01	 0.000E+00	 8.000E+00	 2.484E+02	 2.723E+00	 1.818E-02	-1.036E+00	-1.298E+01	 1.298E+01	 4.853E-01	-2.027E-01	-8.133E-02	 2.079E-01	 1.331E+00	 2.783E-01	 7.239E+00	 3.863E+01	 2.760E-02	-8.230E-02	 1.695E+01	 8.852E-01	 2.463E-01	 4.207E+01	-9.614E-04	 3.930E-02
   7.056	 1.200E+01	 0.000E+00	 8.000E+00	 2.484E+02	 2.723E+00	 6.897E-03	-1.652E+00	-1.298E+01	 1.298E+01	 4.829E-01	-1.845E-01	-9.133E-02	 1.992E-01	 1.333E+00	 2.783E-01	 7.239E+00	 3.933E+01	 2.758E-02	-8.228E-02	 1.695E+01	 8.852E-01	 2.463E-01	 4.206E+01	-9.609E-04	 3.930E-02
   7.064	 1.200E+01	 0.000E+00	 8.000E+00	 2.484E+02	 2.723E+00	-6.156E-03	-1.472E+00	-1.298E+01	 1.298E+01	 4.764E-01	-1.623E-01	-9.439E-02	 1.916E-01	 1.334E+00	 2.783E-01	 7.240E+00	 3.967E+01	 2.734E-02	-8.228E-02	 1.695E+01	 8.853E-01	 2.464E-01	 4.206E+01	-9.605E-04	 3.929E-02
   7.072	 1.200E+01	 0.000E+00	 8.000E+00	 2.484E+02	 2.723E+00	-1.521E-02	-7.360E-01	-1.298E+01	 1.298E+01	 4.661E-01	-1.371E-01	-9.012E-02	 1.854E-01	 1.335E+00	 2.783E-01	 7.241E+00	 3.957E+01	 2.700E-02	-8.230E-02	 1.695E+01	 8.853E-01	 2.464E-01	 4.205E+01	-9.601E-04	 3.929E-02
   7.080	 1.200E+01	 0.000E+00	 8.000E+00	 2.484E+02	 2.722E+00	-1.772E-02	 8.600E-02	-1.298E+01	 1.298E+01	 4.527E-01	-1.099E-01	-7.891E-02	 1.810E-01	 1.336E+00	 2.784E-01	 7.241E+00	 3.907E+01	 2.666E-02	-8.235E-02	 1.696E+01	 8.854E-01	 2.465E-01	 4.204E+01	-9.595E-04	 3.928E-02
   7.088	 1.200E+01	 0.000E+00	 8.000E+00	 2.484E+02	 2.722E+00	-1.463E-02	 6.656E-01	-1.298E+01	 1.298E+01	 4.362E-01	-8.210E-02	-6.171E-02	 1.783E-01	 1.335E+00	 2.784E-01	 7.242E+00	 3.831E+01	 2.653E-02	-8.238E-02	 1.696E+01	 8.854E-01	 2.465E-01	 4.204E+01	-9.595E-04	 3.928E-02
   7.096	 1.200E+01	 0.000E+00	 8.000E+00	 2.485E+02	 2.722E+00	-6.859E-03	 1.247E+00	-1.298E+01	 1.298E+01	 4.176E-01	-5.516E-02	-3.951E-02	 1.774E-01	 1.334E+00	 2.784E-01	 7.242E+00	 3.761E+01	 2.656E-02	-8.241E-02	 1.695E+01	 8.853E-01	 2.464E-01	 4.205E+01	-9.603E-04	 3.928E-02
   7.104	 1.200E+01	 0.000E+00	 8.000E+00	 2.485E+02	 2.722E+00	 4.568E-03	 1.529E+00	-1.298E+01	 1.298E+01	 3.978E-01	-3.030E-02	-1.316E-02	 1.783E-01	 1.332E+00	 2.784E-01	 7.243E+00	 3.721E+01	 2.676E-02	-8.241E-02	 1.695E+01	 8.852E-01	 2.463E-01	 4.206E+01	-9.613E-04	 3.929E-02
   7.112	 1.200E+01	 0.000E+00	 8.000E+00	 2.485E+02	 2.722E+00	 1.600E-02	 1.205E+00	-1.298E+01	 1.298E+01	 3.776E-01	-8.410E-03	 1.635E-02	 1.814E-01	 1.331E+00	 2.784E-01	 7.243E+00	 3.725E+01	 2.708E-02	-8.238E-02	 1.695E+01	 8.851E-01	 2.462E-01	 4.207E+01	-9.619E-04	 3.930E-02
   7.120	 1.200E+01	 0.000E+00	 8.000E+00	 2.485E+02	 2.722E+00	 2.194E-02	 1.990E-01	-1.298E+01	 1.298E+01	 3.581E-01	 9.949E-03	 4.827E-02	 1.863E-01	 1.331E+00	 2.784E-01	 7.243E+00	 3.775E+01	 2.740E-02	-8.234E-02	 1.695E+01	 8.851E-01	 2.462E-01	 4.207E+01	-9.620E-04	 3.930E-02
   7.128	 1.200E+01	 0.000E+00	 8.000E+00	 2.485E+02	 2.723E+00	 1.880E-02	-9.979E-01	-1.298E+01	 1.298E+01	 3.401E-01	 2.412E-02	 8.121E-02	 1.930E-01	 1.332E+00	 2.784E-01	 7.244E+00	 3.856E+01	 2.762E-02	-8.229E-02	 1.695E+01	 8.851E-01	 2.462E-01	 4.207E+01	-9.616E-04	 3.929E-02
   7.136	 1.200E+01	 0.000E+00	 8.000E+00	 2.485E+02	 2.723E+00	 7.665E-03	-1.654E+00	-1.298E+01	 1.298E+01	 3.247E-01	 3.305E-02	 1.135E-01	 2.011E-01	 1.333E+00	 2.784E-01	 7.245E+00	 3.928E+01	 2.761E-02	-8.226E-02	 1.695E+01	 8.852E-01	 2.463E-01	 4.206E+01	-9.611E-04	 3.929E-02
   7.144	 1.200E+01	 0.000E+00	 8.000E+00	 2.485E+02	 2.723E+00	-5.579E-03	-1.518E+00	-1.298E+01	 1.298E+01	 3.127E-01	 3.618E-02	 1.435E-01	 2.100E-01	 1.334E+00	 2.784E-01	 7.246E+00	 3.965E+01	 2.738E-02	-8.226E-02	 1.695E+01	 8.852E-01	 2.463E-01	 4.205E+01	-9.607E-04	 3.928E-02
   7.152	 1.200E+01	 0.000E+00	 8.000E+00	 2.485E+02	 2.723E+00	-1.512E-02	-8.096E-01	-1.298E+01	 1.298E+01	 3.044E-01	 3.322E-02	 1.698E-01	 2.193E-01	 1.335E+00	 2.784E-01	 7.246E+00	 3.957E+01	 2.704E-02	-8.228E-02	 1.695E+01	 8.853E-01	 2.464E-01	 4.204E+01	-9.602E-04	 3.928E-02
   7.160	 1.200E+01	 0.000E+00	 8.000E+00	 2.485E+02	 2.723E+00	-1.825E-02	 7.377E-03	-1.298E+01	 1.298E+01	 3.001E-01	 2.441E-02	 1.916E-01	 2.286E-01	 1.336E+00	 2.785E-01	 7.247E+00	 3.908E+01	 2.670E-02	-8.232E-02	 1.695E+01	 8.853E-01	 2.464E-01	 4.203E+01	-9.596E-04	 3.927E-02
   7.168	 1.200E+01	 0.000E+00	 8.000E+00	 2.485E+02	 2.722E+00	-1.568E-02	 5.984E-01	-1.298E+01	 1.298E+01	 2.998E-01	 1.033E-02	 2.080E-01	 2.376E-01	 1.336E+00	 2.785E-01	 7.247E+00	 3.834E+01	 2.655E-02	-8.237E-02	 1.695E+01	 8.853E-01	 2.464E-01	 4.203E+01	-9.596E-04	 3.927E-02
   7.176	 1.200E+01	 0.000E+00	 8.000E+00	 2.485E+02	 2.722E+00	-8.498E-03	 1.174E+00	-1.298E+01	 1.298E+01	 3.030E-01	-7.978E-03	 2.181E-01	 2.459E-01	 1.334E+00	 2.785E-01	 7.248E+00	 3.764E+01	 2.658E-02	-8.239E-02	 1.695E+01	 8.852E-01	 2.463E-01	 4.204E+01	-9.604E-04	 3.928E-02
   7.184	 1.200E+01	 0.000E+00	 8.000E+00	 2.485E+02	 2.722E+00	 2.575E-03	 1.511E+00	-1.298E+01	 1.298E+01	 3.097E-01	-2.982E-02	 2.215E-01	 2.532E-01	 1.332E+00	 2.785E-01	 7.248E+00	 3.722E+01	 2.676E-02	-8.240E-02	 1.695E+01	 8.851E-01	 2.462E-01	 4.206E+01	-9.613E-04	 3.928E-02
   7.192	 1.200E+01	 0.000E+00	 8.000E+00	 2.486E+02	 2.722E+00	 1.407E-02	 1.235E+00	-1.298E+01	 1.298E+01	 3.199E-01	-5.446E-02	 2.179E-01	 2.595E-01	 1.331E+00	 2.785E-01	 7.248E+00	 3.722E+01	 2.708E-02	-8.238E-02	 1.694E+01	 8.851E-01	 2.461E-01	 4.206E+01	-9.620E-04	 3.929E-02
   7.200	 1.200E+01	 0.000E+00	 8.000E+00	 2.486E+02	 2.722E+00	 2.042E-02	 2.617E-01	-1.297E+01	 1.297E+01	 3.338E-01	-8.110E-02	 2.078E-01	 2.645E-01	 1.331E+00	 2.785E-01	 7.249E+00	 3.770E+01	 2.740E-02	-8.233E-02	 1.694E+01	 8.851E-01	 2.461E-01	 4.207E+01	-9.621E-04	 3.929E-02
   7.208	 1.200E+01	 0.000E+00	 8.000E+00	 2.486E+02	 2.723E+00	 1.777E-02	-9.404E-01	-1.297E+01	 1.297E+01	 3.507E-01	-1.086E-01	 1.918E-01	 2.679E-01	 1.332E+00	 2.785E-01	 7.250E+00	 3.849E+01	 2.762E-02	-8.229E-02	 1.694E+01	 8.851E-01	 2.462E-01	 4.206E+01	-9.618E-04	 3.929E-02
   7.216	 1.200E+01	 0.000E+00	 8.000E+00	 2.486E+02	 2.723E+00	 6.910E-03	-1.638E+00	-1.297E+01	 1.297E+01	 3.696E-01	-1.356E-01	 1.703E-01	 2.695E-01	 1.333E+00	 2.785E-01	 7.250E+00	 3.923E+01	 2.763E-02	-8.226E-02	 1.695E+01	 8.851E-01	 2.462E-01	 4.205E+01	-9.612E-04	 3.928E-02
   7.224	 1.200E+01	 0.000E+00	 8.000E+00	 2.486E+02	 2.723E+00	-6.335E-03	-1.533E+00	-1.297E+01	 1.297E+01	 3.892E-01	-1.609E-01	 1.442E-01	 2.689E-01	 1.335E+00	 2.785E-01	 7.251E+00	 3.962E+01	 2.742E-02	-8.226E-02	 1.695E+01	 8.852E-01	 2.463E-01	 4.204E+01	-9.607E-04	 3.928E-02
[...]
  19.448	 1.200E+01	 5.157E+01	 8.000E+00	 2.465E+02	 2.707E+00	 2.977E-02	-6.500E-01	 3.945E+01	 1.212E+01	 3.630E-01	-9.872E-02	 1.983E-01	 2.621E-01	 1.332E+00	 2.760E-01	 7.125E+00	 3.198E+01	 3.488E-02	-8.693E-02	 1.608E+01	 8.630E-01	 2.213E-01	 4.196E+01	-1.127E-03	 3.800E-02
  19.456	 1.200E+01	 5.157E+01	 8.000E+00	 2.465E+02	 2.707E+00	 2.019E-02	-1.633E+00	 3.944E+01	 1.213E+01	 3.804E-01	-1.260E-01	 1.795E-01	 2.625E-01	 1.334E+00	 2.760E-01	 7.126E+00	 3.256E+01	 3.492E-02	-8.687E-02	 1.609E+01	 8.632E-01	 2.215E-01	 4.194E+01	-1.125E-03	 3.800E-02
  19.464	 1.200E+01	 5.157E+01	 8.000E+00	 2.466E+02	 2.707E+00	 5.864E-03	-1.816E+00	 3.944E+01	 1.213E+01	 3.983E-01	-1.521E-01	 1.556E-01	 2.612E-01	 1.335E+00	 2.760E-01	 7.127E+00	 3.298E+01	 3.480E-02	-8.684E-02	 1.610E+01	 8.635E-01	 2.218E-01	 4.193E+01	-1.122E-03	 3.800E-02
  19.472	 1.200E+01	 5.157E+01	 8.000E+00	 2.466E+02	 2.707E+00	-6.970E-03	-1.294E+00	 3.943E+01	 1.214E+01	 4.157E-01	-1.755E-01	 1.272E-01	 2.584E-01	 1.336E+00	 2.760E-01	 7.128E+00	 3.323E+01	 3.452E-02	-8.684E-02	 1.610E+01	 8.637E-01	 2.220E-01	 4.193E+01	-1.121E-03	 3.801E-02
  19.480	 1.200E+01	 5.157E+01	 8.000E+00	 2.466E+02	 2.707E+00	-1.432E-02	-5.416E-01	 3.943E+01	 1.215E+01	 4.315E-01	-1.952E-01	 9.572E-02	 2.542E-01	 1.336E+00	 2.761E-01	 7.129E+00	 3.316E+01	 3.418E-02	-8.687E-02	 1.611E+01	 8.639E-01	 2.222E-01	 4.192E+01	-1.119E-03	 3.801E-02
  19.488	 1.200E+01	 5.157E+01	 8.000E+00	 2.466E+02	 2.707E+00	-1.531E-02	 3.165E-01	 3.942E+01	 1.215E+01	 4.454E-01	-2.108E-01	 6.265E-02	 2.488E-01	 1.336E+00	 2.761E-01	 7.130E+00	 3.273E+01	 3.382E-02	-8.691E-02	 1.612E+01	 8.640E-01	 2.224E-01	 4.192E+01	-1.118E-03	 3.802E-02
  19.496	 1.200E+01	 5.157E+01	 8.000E+00	 2.466E+02	 2.707E+00	-9.073E-03	 1.231E+00	 3.942E+01	 1.216E+01	 4.566E-01	-2.214E-01	 2.995E-02	 2.423E-01	 1.335E+00	 2.761E-01	 7.131E+00	 3.198E+01	 3.363E-02	-8.694E-02	 1.612E+01	 8.641E-01	 2.225E-01	 4.193E+01	-1.117E-03	 3.804E-02
  19.504	 1.200E+01	 5.157E+01	 8.000E+00	 2.466E+02	 2.707E+00	 3.465E-03	 1.818E+00	 3.941E+01	 1.216E+01	 4.651E-01	-2.267E-01	-5.771E-04	 2.347E-01	 1.334E+00	 2.761E-01	 7.131E+00	 3.129E+01	 3.376E-02	-8.694E-02	 1.612E+01	 8.641E-01	 2.225E-01	 4.195E+01	-1.117E-03	 3.805E-02
  19.512	 1.200E+01	 5.157E+01	 8.000E+00	 2.467E+02	 2.707E+00	 1.791E-02	 1.660E+00	 3.941E+01	 1.217E+01	 4.711E-01	-2.268E-01	-2.809E-02	 2.265E-01	 1.332E+00	 2.761E-01	 7.132E+00	 3.111E+01	 3.411E-02	-8.691E-02	 1.613E+01	 8.642E-01	 2.226E-01	 4.197E+01	-1.117E-03	 3.807E-02
  19.520	 1.200E+01	 5.157E+01	 8.000E+00	 2.467E+02	 2.707E+00	 2.811E-02	 7.909E-01	 3.940E+01	 1.217E+01	 4.746E-01	-2.214E-01	-5.195E-02	 2.183E-01	 1.331E+00	 2.761E-01	 7.133E+00	 3.144E+01	 3.447E-02	-8.686E-02	 1.613E+01	 8.643E-01	 2.228E-01	 4.197E+01	-1.116E-03	 3.808E-02
  19.528	 1.200E+01	 5.157E+01	 8.000E+00	 2.467E+02	 2.707E+00	 2.947E-02	-4.669E-01	 3.940E+01	 1.218E+01	 4.751E-01	-2.110E-01	-7.167E-02	 2.106E-01	 1.332E+00	 2.762E-01	 7.134E+00	 3.203E+01	 3.467E-02	-8.679E-02	 1.614E+01	 8.645E-01	 2.230E-01	 4.196E+01	-1.114E-03	 3.809E-02
  19.536	 1.200E+01	 5.157E+01	 8.000E+00	 2.467E+02	 2.708E+00	 2.110E-02	-1.536E+00	 3.939E+01	 1.218E+01	 4.724E-01	-1.958E-01	-8.636E-02	 2.036E-01	 1.333E+00	 2.762E-01	 7.135E+00	 3.264E+01	 3.472E-02	-8.673E-02	 1.615E+01	 8.647E-01	 2.232E-01	 4.195E+01	-1.112E-03	 3.809E-02
  19.544	 1.200E+01	 5.157E+01	 8.000E+00	 2.467E+02	 2.708E+00	 7.088E-03	-1.833E+00	 3.939E+01	 1.219E+01	 4.661E-01	-1.761E-01	-9.461E-02	 1.977E-01	 1.335E+00	 2.762E-01	 7.136E+00	 3.309E+01	 3.462E-02	-8.669E-02	 1.616E+01	 8.650E-01	 2.235E-01	 4.194E+01	-1.110E-03	 3.809E-02
  19.552	 1.200E+01	 5.157E+01	 8.000E+00	 2.467E+02	 2.708E+00	-6.197E-03	-1.390E+00	 3.938E+01	 1.219E+01	 4.567E-01	-1.528E-01	-9.538E-02	 1.929E-01	 1.336E+00	 2.762E-01	 7.137E+00	 3.337E+01	 3.436E-02	-8.670E-02	 1.616E+01	 8.652E-01	 2.237E-01	 4.194E+01	-1.108E-03	 3.809E-02
  19.560	 1.200E+01	 5.157E+01	 8.000E+00	 2.467E+02	 2.708E+00	-1.419E-02	-6.179E-01	 3.938E+01	 1.220E+01	 4.441E-01	-1.268E-01	-8.847E-02	 1.894E-01	 1.336E+00	 2.762E-01	 7.138E+00	 3.334E+01	 3.401E-02	-8.672E-02	 1.617E+01	 8.653E-01	 2.239E-01	 4.193E+01	-1.107E-03	 3.810E-02
  19.568	 1.200E+01	 5.157E+01	 8.000E+00	 2.468E+02	 2.708E+00	-1.592E-02	 2.101E-01	 3.937E+01	 1.220E+01	 4.295E-01	-9.934E-02	-7.480E-02	 1.875E-01	 1.336E+00	 2.763E-01	 7.139E+00	 3.295E+01	 3.366E-02	-8.676E-02	 1.618E+01	 8.655E-01	 2.241E-01	 4.193E+01	-1.105E-03	 3.811E-02
  19.576	 1.200E+01	 5.157E+01	 8.000E+00	 2.468E+02	 2.707E+00	-1.062E-02	 1.117E+00	 3.937E+01	 1.221E+01	 4.133E-01	-7.196E-02	-5.567E-02	 1.874E-01	 1.335E+00	 2.763E-01	 7.139E+00	 3.223E+01	 3.344E-02	-8.679E-02	 1.618E+01	 8.656E-01	 2.242E-01	 4.194E+01	-1.105E-03	 3.812E-02
  19.584	 1.200E+01	 5.157E+01	 8.000E+00	 2.468E+02	 2.707E+00	 1.295E-03	 1.784E+00	 3.936E+01	 1.221E+01	 3.958E-01	-4.594E-02	-3.216E-02	 1.887E-01	 1.334E+00	 2.763E-01	 7.140E+00	 3.152E+01	 3.352E-02	-8.680E-02	 1.618E+01	 8.656E-01	 2.242E-01	 4.196E+01	-1.105E-03	 3.814E-02
  19.592	 1.200E+01	 5.157E+01	 8.000E+00	 2.468E+02	 2.708E+00	 1.599E-02	 1.758E+00	 3.936E+01	 1.222E+01	 3.778E-01	-2.227E-02	-5.180E-03	 1.916E-01	 1.332E+00	 2.763E-01	 7.141E+00	 3.125E+01	 3.384E-02	-8.678E-02	 1.618E+01	 8.657E-01	 2.243E-01	 4.197E+01	-1.105E-03	 3.815E-02
  19.600	 1.200E+01	 5.157E+01	 8.000E+00	 2.468E+02	 2.708E+00	 2.733E-02	 9.726E-01	 3.935E+01	 1.222E+01	 3.604E-01	-1.697E-03	 2.468E-02	 1.959E-01	 1.331E+00	 2.763E-01	 7.142E+00	 3.151E+01	 3.421E-02	-8.672E-02	 1.619E+01	 8.658E-01	 2.244E-01	 4.197E+01	-1.104E-03	 3.816E-02
  19.608	 1.200E+01	 5.157E+01	 8.000E+00	 2.468E+02	 2.708E+00	 3.028E-02	-2.774E-01	 3.935E+01	 1.223E+01	 3.446E-01	 1.530E-02	 5.676E-02	 2.015E-01	 1.332E+00	 2.763E-01	 7.142E+00	 3.210E+01	 3.444E-02	-8.665E-02	 1.619E+01	 8.660E-01	 2.246E-01	 4.197E+01	-1.103E-03	 3.817E-02
  19.616	 1.200E+01	 5.157E+01	 8.000E+00	 2.468E+02	 2.708E+00	 2.328E-02	-1.414E+00	 3.934E+01	 1.223E+01	 3.308E-01	 2.812E-02	 8.971E-02	 2.082E-01	 1.333E+00	 2.764E-01	 7.143E+00	 3.273E+01	 3.451E-02	-8.659E-02	 1.620E+01	 8.662E-01	 2.248E-01	 4.196E+01	-1.101E-03	 3.817E-02
  19.624	 1.200E+01	 5.157E+01	 8.000E+00	 2.469E+02	 2.708E+00	 9.767E-03	-1.830E+00	 3.934E+01	 1.224E+01	 3.198E-01	 3.557E-02	 1.217E-01	 2.157E-01	 1.335E+00	 2.764E-01	 7.145E+00	 3.321E+01	 3.443E-02	-8.655E-02	 1.621E+01	 8.664E-01	 2.251E-01	 4.195E+01	-1.099E-03	 3.817E-02
  19.632	 1.200E+01	 5.157E+01	 8.000E+00	 2.469E+02	 2.708E+00	-3.840E-03	-1.468E+00	 3.933E+01	 1.224E+01	 3.122E-01	 3.700E-02	 1.508E-01	 2.235E-01	 1.336E+00	 2.764E-01	 7.146E+00	 3.350E+01	 3.418E-02	-8.655E-02	 1.622E+01	 8.666E-01	 2.253E-01	 4.194E+01	-1.097E-03	 3.818E-02
  19.640	 1.200E+01	 5.157E+01	 8.000E+00	 2.469E+02	 2.708E+00	-1.262E-02	-7.153E-01	 3.933E+01	 1.224E+01	 3.081E-01	 3.217E-02	 1.758E-01	 2.311E-01	 1.336E+00	 2.764E-01	 7.147E+00	 3.350E+01	 3.385E-02	-8.657E-02	 1.623E+01	 8.668E-01	 2.255E-01	 4.194E+01	-1.095E-03	 3.818E-02
  19.648	 1.200E+01	 5.157E+01	 8.000E+00	 2.469E+02	 2.708E+00	-1.522E-02	 8.284E-02	 3.932E+01	 1.225E+01	 3.080E-01	 2.157E-02	 1.959E-01	 2.383E-01	 1.336E+00	 2.764E-01	 7.148E+00	 3.316E+01	 3.351E-02	-8.661E-02	 1.623E+01	 8.669E-01	 2.257E-01	 4.193E+01	-1.094E-03	 3.819E-02
  19.656	 1.200E+01	 5.157E+01	 8.000E+00	 2.469E+02	 2.708E+00	-1.100E-02	 9.755E-01	 3.932E+01	 1.225E+01	 3.116E-01	 5.950E-03	 2.102E-01	 2.448E-01	 1.335E+00	 2.765E-01	 7.148E+00	 3.249E+01	 3.326E-02	-8.664E-02	 1.624E+01	 8.670E-01	 2.258E-01	 4.194E+01	-1.093E-03	 3.820E-02
  19.664	 1.200E+01	 5.157E+01	 8.000E+00	 2.469E+02	 2.708E+00	-1.614E-06	 1.701E+00	 3.932E+01	 1.226E+01	 3.183E-01	-1.350E-02	 2.185E-01	 2.504E-01	 1.334E+00	 2.765E-01	 7.149E+00	 3.176E+01	 3.328E-02	-8.665E-02	 1.624E+01	 8.670E-01	 2.258E-01	 4.196E+01	-1.094E-03	 3.822E-02
  19.672	 1.200E+01	 5.157E+01	 8.000E+00	 2.469E+02	 2.708E+00	 1.457E-02	 1.802E+00	 3.931E+01	 1.226E+01	 3.278E-01	-3.599E-02	 2.203E-01	 2.552E-01	 1.332E+00	 2.765E-01	 7.150E+00	 3.142E+01	 3.357E-02	-8.663E-02	 1.624E+01	 8.671E-01	 2.259E-01	 4.198E+01	-1.094E-03	 3.823E-02
  19.680	 1.200E+01	 5.157E+01	 8.000E+00	 2.470E+02	 2.708E+00	 2.670E-02	 1.117E+00	 3.931E+01	 1.227E+01	 3.400E-01	-6.093E-02	 2.155E-01	 2.590E-01	 1.331E+00	 2.765E-01	 7.150E+00	 3.162E+01	 3.394E-02	-8.658E-02	 1.624E+01	 8.672E-01	 2.260E-01	 4.198E+01	-1.093E-03	 3.825E-02
  19.688	 1.200E+01	 5.157E+01	 8.000E+00	 2.470E+02	 2.708E+00	 3.099E-02	-1.085E-01	 3.930E+01	 1.227E+01	 3.547E-01	-8.763E-02	 2.045E-01	 2.616E-01	 1.332E+00	 2.765E-01	 7.151E+00	 3.218E+01	 3.419E-02	-8.651E-02	 1.625E+01	 8.673E-01	 2.262E-01	 4.198E+01	-1.092E-03	 3.825E-02
  19.696	 1.200E+01	 5.157E+01	 8.000E+00	 2.470E+02	 2.709E+00	 2.511E-02	-1.327E+00	 3.930E+01	 1.228E+01	 3.716E-01	-1.151E-01	 1.878E-01	 2.628E-01	 1.333E+00	 2.765E-01	 7.152E+00	 3.284E+01	 3.430E-02	-8.644E-02	 1.626E+01	 8.675E-01	 2.264E-01	 4.197E+01	-1.090E-03	 3.825E-02
  19.704	 1.200E+01	 5.157E+01	 8.000E+00	 2.470E+02	 2.709E+00	 1.189E-02	-1.846E+00	 3.929E+01	 1.228E+01	 3.896E-01	-1.418E-01	 1.658E-01	 2.623E-01	 1.334E+00	 2.766E-01	 7.153E+00	 3.335E+01	 3.423E-02	-8.640E-02	 1.627E+01	 8.678E-01	 2.266E-01	 4.196E+01	-1.088E-03	 3.825E-02
  19.712	 1.200E+01	 5.157E+01	 8.000E+00	 2.470E+02	 2.709E+00	-2.192E-03	-1.559E+00	 3.929E+01	 1.229E+01	 4.075E-01	-1.665E-01	 1.391E-01	 2.602E-01	 1.335E+00	 2.766E-01	 7.154E+00	 3.367E+01	 3.400E-02	-8.639E-02	 1.627E+01	 8.679E-01	 2.268E-01	 4.195E+01	-1.086E-03	 3.826E-02
  19.720	 1.200E+01	 5.157E+01	 8.000E+00	 2.470E+02	 2.709E+00	-1.181E-02	-8.163E-01	 3.928E+01	 1.229E+01	 4.242E-01	-1.878E-01	 1.086E-01	 2.566E-01	 1.336E+00	 2.766E-01	 7.155E+00	 3.369E+01	 3.367E-02	-8.641E-02	 1.628E+01	 8.681E-01	 2.270E-01	 4.194E+01	-1.085E-03	 3.826E-02
  19.728	 1.200E+01	 5.157E+01	 8.000E+00	 2.470E+02	 2.709E+00	-1.526E-02	-2.826E-02	 3.928E+01	 1.230E+01	 4.393E-01	-2.052E-01	 7.594E-02	 2.517E-01	 1.336E+00	 2.766E-01	 7.156E+00	 3.338E+01	 3.333E-02	-8.644E-02	 1.629E+01	 8.683E-01	 2.272E-01	 4.194E+01	-1.083E-03	 3.827E-02
  19.736	 1.200E+01	 5.157E+01	 8.000E+00	 2.471E+02	 2.709E+00	-1.199E-02	 8.440E-01	 3.927E+01	 1.230E+01	 4.521E-01	-2.180E-01	 4.278E-02	 2.456E-01	 1.335E+00	 2.766E-01	 7.157E+00	 3.275E+01	 3.307E-02	-8.647E-02	 1.629E+01	 8.684E-01	 2.273E-01	 4.195E+01	-1.083E-03	 3.828E-02
  19.744	 1.200E+01	 5.157E+01	 8.000E+00	 2.471E+02	 2.708E+00	-1.820E-03	 1.628E+00	 3.927E+01	 1.231E+01	 4.620E-01	-2.255E-01	 1.117E-02	 2.383E-01	 1.334E+00	 2.766E-01	 7.157E+00	 3.201E+01	 3.305E-02	-8.649E-02	 1.629E+01	 8.684E-01	 2.274E-01	 4.196E+01	-1.083E-03	 3.829E-02
  19.752	 1.200E+01	 5.157E+01	 8.000E+00	 2.471E+02	 2.709E+00	 1.258E-02	 1.838E+00	 3.926E+01	 1.231E+01	 4.693E-01	-2.277E-01	-1.768E-02	 2.302E-01	 1.332E+00	 2.767E-01	 7.158E+00	 3.161E+01	 3.329E-02	-8.648E-02	 1.629E+01	 8.684E-01	 2.274E-01	 4.198E+01	-1.083E-03	 3.831E-02
  19.760	 1.200E+01	 5.157E+01	 8.000E+00	 2.471E+02	 2.709E+00	 2.544E-02	 1.252E+00	 3.926E+01	 1.231E+01	 4.741E-01	-2.244E-01	-4.312E-02	 2.218E-01	 1.331E+00	 2.767E-01	 7.159E+00	 3.174E+01	 3.366E-02	-8.643E-02	 1.630E+01	 8.685E-01	 2.275E-01	 4.199E+01	-1.082E-03	 3.832E-02
  19.768	 1.200E+01	 5.157E+01	 8.000E+00	 2.471E+02	 2.709E+00	 3.102E-02	 7.040E-02	 3.925E+01	 1.232E+01	 4.762E-01	-2.158E-01	-6.455E-02	 2.137E-01	 1.332E+00	 2.767E-01	 7.159E+00	 3.227E+01	 3.394E-02	-8.636E-02	 1.630E+01	 8.687E-01	 2.276E-01	 4.198E+01	-1.081E-03	 3.833E-02
  19.776	 1.200E+01	 5.157E+01	 8.000E+00	 2.471E+02	 2.709E+00	 2.646E-02	-1.189E+00	 3.925E+01	 1.232E+01	 4.750E-01	-2.024E-01	-8.131E-02	 2.062E-01	 1.333E+00	 2.767E-01	 7.160E+00	 3.293E+01	 3.406E-02	-8.629E-02	 1.631E+01	 8.689E-01	 2.279E-01	 4.198E+01	-1.079E-03	 3.833E-02
  19.784	 1.200E+01	 5.157E+01	 8.000E+00	 2.471E+02	 2.709E+00	 1.391E-02	-1.798E+00	 3.925E+01	 1.233E+01	 4.704E-01	-1.844E-01	-9.210E-02	 1.996E-01	 1.334E+00	 2.767E-01	 7.161E+00	 3.347E+01	 3.402E-02	-8.624E-02	 1.632E+01	 8.691E-01	 2.281E-01	 4.196E+01	-1.078E-03	 3.833E-02
  19.792	 1.200E+01	 5.157E+01	 8.000E+00	 2.471E+02	 2.709E+00	-2.081E-04	-1.599E+00	 3.924E+01	 1.233E+01	 4.623E-01	-1.624E-01	-9.578E-02	 1.941E-01	 1.335E+00	 2.767E-01	 7.162E+00	 3.382E+01	 3.380E-02	-8.623E-02	 1.632E+01	 8.692E-01	 2.283E-01	 4.196E+01	-1.076E-03	 3.833E-02
  19.800	 1.200E+01	 5.157E+01	 8.000E+00	 2.472E+02	 2.709E+00	-1.029E-02	-8.915E-01	 3.924E+01	 1.234E+01	 4.509E-01	-1.372E-01	-9.178E-02	 1.899E-01	 1.336E+00	 2.768E-01	 7.163E+00	 3.388E+01	 3.348E-02	-8.624E-02	 1.633E+01	 8.694E-01	 2.285E-01	 4.195E+01	-1.074E-03	 3.834E-02
  19.808	 1.200E+01	 5.157E+01	 8.000E+00	 2.472E+02	 2.709E+00	-1.437E-02	-1.255E-01	 3.923E+01	 1.234E+01	 4.368E-01	-1.101E-01	-8.062E-02	 1.872E-01	 1.336E+00	 2.768E-01	 7.164E+00	 3.360E+01	 3.314E-02	-8.627E-02	 1.634E+01	 8.696E-01	 2.287E-01	 4.194E+01	-1.073E-03	 3.834E-02
  19.816	 1.200E+01	 5.157E+01	 8.000E+00	 2.472E+02	 2.709E+00	-1.205E-02	 7.139E-01	 3.923E+01	 1.235E+01	 4.212E-01	-8.246E-02	-6.352E-02	 1.862E-01	 1.336E+00	 2.768E-01	 7.165E+00	 3.300E+01	 3.287E-02	-8.631E-02	 1.634E+01	 8.697E-01	 2.288E-01	 4.195E+01	-1.072E-03	 3.835E-02
  19.824	 1.200E+01	 5.157E+01	 8.000E+00	 2.472E+02	 2.709E+00	-2.955E-03	 1.520E+00	 3.922E+01	 1.235E+01	 4.040E-01	-5.573E-02	-4.157E-02	 1.868E-01	 1.334E+00	 2.768E-01	 7.165E+00	 3.228E+01	 3.281E-02	-8.632E-02	 1.634E+01	 8.697E-01	 2.288E-01	 4.197E+01	-1.072E-03	 3.837E-02
  19.832	 1.200E+01	 5.157E+01	 8.000E+00	 2.472E+02	 2.709E+00	 1.098E-02	 1.842E+00	 3.922E+01	 1.235E+01	 3.860E-01	-3.101E-02	-1.570E-02	 1.889E-01	 1.333E+00	 2.768E-01	 7.166E+00	 3.182E+01	 3.302E-02	-8.631E-02	 1.634E+01	 8.697E-01	 2.288E-01	 4.198E+01	-1.073E-03	 3.838E-02
  19.840	 1.200E+01	 5.157E+01	 8.000E+00	 2.472E+02	 2.709E+00	 2.435E-02	 1.370E+00	 3.921E+01	 1.236E+01	 3.680E-01	-9.146E-03	 1.327E-02	 1.926E-01	 1.331E+00	 2.768E-01	 7.167E+00	 3.188E+01	 3.337E-02	-8.627E-02	 1.635E+01	 8.698E-01	 2.289E-01	 4.199E+01	-1.072E-03	 3.840E-02
  19.848	 1.200E+01	 5.157E+01	 8.000E+00	 2.472E+02	 2.709E+00	 3.111E-02	 2.383E-01	 3.921E+01	 1.236E+01	 3.511E-01	 9.297E-03	 4.477E-02	 1.977E-01	 1.332E+00	 2.768E-01	 7.167E+00	 3.236E+01	 3.368E-02	-8.620E-02	 1.635E+01	 8.699E-01	 2.291E-01	 4.199E+01	-1.071E-03	 3.840E-02
  19.856	 1.200E+01	 5.157E+01	 8.000E+00	 2.472E+02	 2.710E+00	 2.773E-02	-1.061E+00	 3.921E+01	 1.237E+01	 3.361E-01	 2.382E-02	 7.766E-02	 2.041E-01	 1.333E+00	 2.769E-01	 7.168E+00	 3.302E+01	 3.382E-02	-8.613E-02	 1.636E+01	 8.701E-01	 2.293E-01	 4.198E+01	-1.070E-03	 3.840E-02
  19.864	 1.200E+01	 5.157E+01	 8.000E+00	 2.473E+02	 2.710E+00	 1.568E-02	-1.791E+00	 3.920E+01	 1.237E+01	 3.236E-01	 3.336E-02	 1.102E-01	 2.114E-01	 1.334E+00	 2.769E-01	 7.169E+00	 3.362E+01	 3.380E-02	-8.608E-02	 1.637E+01	 8.703E-01	 2.295E-01	 4.197E+01	-1.068E-03	 3.840E-02
  19.872	 1.200E+01	 5.157E+01	 8.000E+00	 2.473E+02	 2.710E+00	 1.281E-03	-1.670E+00	 3.920E+01	 1.238E+01	 3.144E-01	 3.705E-02	 1.405E-01	 2.193E-01	 1.335E+00	 2.769E-01	 7.170E+00	 3.399E+01	 3.360E-02	-8.606E-02	 1.637E+01	 8.705E-01	 2.297E-01	 4.196E+01	-1.066E-03	 3.841E-02
  19.880	 1.200E+01	 5.157E+01	 8.000E+00	 2.473E+02	 2.710E+00	-9.463E-03	-9.714E-01	 3.919E+01	 1.238E+01	 3.087E-01	 3.453E-02	 1.672E-01	 2.271E-01	 1.336E+00	 2.769E-01	 7.171E+00	 3.407E+01	 3.327E-02	-8.607E-02	 1.638E+01	 8.707E-01	 2.299E-01	 4.196E+01	-1.065E-03	 3.841E-02
  19.888	 1.200E+01	 5.157E+01	 8.000E+00	 2.473E+02	 2.710E+00	-1.416E-02	-2.092E-01	 3.919E+01	 1.239E+01	 3.069E-01	 2.601E-02	 1.893E-01	 2.347E-01	 1.336E+00	 2.769E-01	 7.172E+00	 3.381E+01	 3.295E-02	-8.610E-02	 1.638E+01	 8.708E-01	 2.301E-01	 4.195E+01	-1.063E-03	 3.841E-02
  19.896	 1.200E+01	 5.157E+01	 8.000E+00	 2.473E+02	 2.710E+00	-1.264E-02	 5.993E-01	 3.918E+01	 1.239E+01	 3.089E-01	 1.216E-02	 2.060E-01	 2.418E-01	 1.336E+00	 2.770E-01	 7.173E+00	 3.325E+01	 3.267E-02	-8.614E-02	 1.639E+01	 8.709E-01	 2.302E-01	 4.195E+01	-1.063E-03	 3.842E-02
  19.904	 1.200E+01	 5.157E+01	 8.000E+00	 2.473E+02	 2.710E+00	-4.519E-03	 1.411E+00	 3.918E+01	 1.239E+01	 3.142E-01	-5.998E-03	 2.165E-01	 2.479E-01	 1.335E+00	 2.770E-01	 7.173E+00	 3.254E+01	 3.257E-02	-8.616E-02	 1.639E+01	 8.709E-01	 2.302E-01	 4.197E+01	-1.063E-03	 3.844E-02
  19.912	 1.200E+01	 5.157E+01	 8.000E+00	 2.473E+02	 2.710E+00	 8.829E-03	 1.819E+00	 3.918E+01	 1.240E+01	 3.224E-01	-2.749E-02	 2.207E-01	 2.532E-01	 1.333E+00	 2.770E-01	 7.174E+00	 3.204E+01	 3.274E-02	-8.615E-02	 1.639E+01	 8.710E-01	 2.302E-01	 4.199E+01	-1.063E-03	 3.845E-02
  19.920	 1.200E+01	 5.157E+01	 8.000E+00	 2.474E+02	 2.710E+00	 2.250E-02	 1.464E+00	 3.917E+01	 1.240E+01	 3.335E-01	-5.170E-02	 2.182E-01	 2.576E-01	 1.332E+00	 2.770E-01	 7.175E+00	 3.203E+01	 3.308E-02	-8.611E-02	 1.639E+01	 8.710E-01	 2.303E-01	 4.200E+01	-1.063E-03	 3.846E-02
  19.928	 1.200E+01	 5.157E+01	 8.000E+00	 2.474E+02	 2.710E+00	 3.036E-02	 4.052E-01	 3.917E+01	 1.241E+01	 3.473E-01	-7.794E-02	 2.093E-01	 2.609E-01	 1.331E+00	 2.770E-01	 7.175E+00	 3.247E+01	 3.340E-02	-8.604E-02	 1.640E+01	 8.711E-01	 2.304E-01	 4.200E+01	-1.062E-03	 3.847E-02
  19.936	 1.200E+01	 5.157E+01	 8.000E+00	 2.474E+02	 2.710E+00	 2.824E-02	-8.998E-01	 3.916E+01	 1.241E+01	 3.637E-01	-1.053E-01	 1.944E-01	 2.628E-01	 1.332E+00	 2.770E-01	 7.176E+00	 3.312E+01	 3.356E-02	-8.597E-02	 1.640E+01	 8.713E-01	 2.306E-01	 4.199E+01	-1.061E-03	 3.847E-02
  19.944	 1.200E+01	 5.157E+01	 8.000E+00	 2.474E+02	 2.710E+00	 1.695E-02	-1.754E+00	 3.916E+01	 1.241E+01	 3.816E-01	-1.325E-01	 1.742E-01	 2.632E-01	 1.334E+00	 2.770E-01	 7.177E+00	 3.375E+01	 3.357E-02	-8.592E-02	 1.641E+01	 8.715E-01	 2.308E-01	 4.198E+01	-1.059E-03	 3.847E-02
  19.952	 1.200E+01	 5.157E+01	 8.000E+00	 2.474E+02	 2.710E+00	 2.455E-03	-1.724E+00	 3.916E+01	 1.242E+01	 3.998E-01	-1.581E-01	 1.490E-01	 2.618E-01	 1.335E+00	 2.771E-01	 7.178E+00	 3.415E+01	 3.339E-02	-8.590E-02	 1.642E+01	 8.717E-01	 2.310E-01	 4.197E+01	-1.057E-03	 3.847E-02
  19.960	 1.200E+01	 5.157E+01	 8.000E+00	 2.474E+02	 2.710E+00	-8.875E-03	-1.033E+00	 3.915E+01	 1.242E+01	 4.172E-01	-1.807E-01	 1.197E-01	 2.588E-01	 1.336E+00	 2.771E-01	 7.179E+00	 3.428E+01	 3.306E-02	-8.591E-02	 1.642E+01	 8.718E-01	 2.312E-01	 4.196E+01	-1.056E-03	 3.848E-02
  19.968	 1.200E+01	 5.157E+01	 8.000E+00	 2.474E+02	 2.710E+00	-1.389E-02	-2.456E-01	 3.915E+01	 1.243E+01	 4.332E-01	-1.997E-01	 8.758E-02	 2.543E-01	 1.336E+00	 2.771E-01	 7.180E+00	 3.404E+01	 3.272E-02	-8.594E-02	 1.643E+01	 8.720E-01	 2.314E-01	 4.196E+01	-1.054E-03	 3.848E-02
  19.976	 1.200E+01	 5.157E+01	 8.000E+00	 2.474E+02	 2.710E+00	-1.275E-02	 5.365E-01	 3.914E+01	 1.243E+01	 4.473E-01	-2.142E-01	 5.427E-02	 2.486E-01	 1.336E+00	 2.771E-01	 7.181E+00	 3.350E+01	 3.243E-02	-8.597E-02	 1.644E+01	 8.721E-01	 2.315E-01	 4.196E+01	-1.054E-03	 3.849E-02
  19.984	 1.200E+01	 5.157E+01	 8.000E+00	 2.475E+02	 2.710E+00	-5.261E-03	 1.324E+00	 3.914E+01	 1.243E+01	 4.586E-01	-2.237E-01	 2.180E-02	 2.416E-01	 1.335E+00	 2.771E-01	 7.181E+00	 3.279E+01	 3.233E-02	-8.599E-02	 1.644E+01	 8.721E-01	 2.315E-01	 4.197E+01	-1.054E-03	 3.850E-02
  19.992	 1.200E+01	 5.157E+01	 8.000E+00	 2.475E+02	 2.710E+00	 7.600E-03	 1.793E+00	 3.914E+01	 1.244E+01	 4.672E-01	-2.278E-01	-8.168E-03	 2.337E-01	 1.333E+00	 2.771E-01	 7.182E+00	 3.226E+01	 3.247E-02	-8.599E-02	 1.644E+01	 8.721E-01	 2.316E-01	 4.199E+01	-1.054E-03	 3.852E-02
  20.000	 1.200E+01	 5.157E+01	 8.000E+00	 2.475E+02	 2.710E+00	 2.148E-02	 1.537E+00	 3.913E+01	 1.244E+01	 4.733E-01	-2.264E-01	-3.490E-02	 2.252E-01	 1.332E+00	 2.771E-01	 7.182E+00	 3.219E+01	 3.280E-02	-8.595E-02	 1.644E+01	 8.722E-01	 2.316E-01	 4.200E+01	-1.054E-03	 3.853E-02
