
These predictions were generated by FAST (v7.02.00d-bjj, 20-Feb-2013) on 23-Feb-2013 at 15:09:15.
The aerodynamic calculations were made by AeroDyn (v13.00.02a-bjj, 20-Feb-2013).

 FAST certification Test #17: FAST model of a SWRT 3-bladed upwind turbine.  Note- SWRT rotates in CCW direction- some inputs will be mirror image of the actual turbine.

Time	TotWindV	TwrClrnc1	TwrClrnc2	TwrClrnc3	LSSTipV	TailFurl	TailFurlV	TailFurlA	NacYaw	NacYawErr	RootFzb3	RootMEdg3	RootMFlp3	LSShftFxs	LSShftMxs	CThrstArm	GenCp	GenCq	TFrlBrM	YawBrFzn
(s)	(m/s)	(m)	(m)	(m)	(rpm)	(deg)	(deg/s)	(deg/s^2)	(deg)	(deg)	(kN)	(kN·m)	(kN·m)	(kN)	(kN·m)	(-)	(-)	(-)	(kN·m)	(kN)
  10.000	 1.696E+01	 1.713E+00	 3.150E+00	 3.395E+00	 4.372E+02	 2.592E+00	 1.288E+00	-1.159E+01	-4.572E+00	 1.998E+00	 3.629E+01	 9.563E-02	 4.047E-01	 2.679E+00	 2.098E-01	 5.256E-02	 1.237E-01	 1.902E-02	-1.208E-01	-5.225E+00
  10.008	 1.705E+01	 1.163E+00	 3.308E+00	 3.264E+00	 4.373E+02	 2.602E+00	 1.208E+00	-4.674E+00	-4.597E+00	 2.008E+00	 3.629E+01	 1.532E-01	 4.278E-01	 2.696E+00	 2.095E-01	 5.251E-02	 1.218E-01	 1.882E-02	-1.179E-01	-5.261E+00
  10.016	 1.713E+01	 1.307E+00	 3.426E+00	 3.097E+00	 4.373E+02	 2.612E+00	 1.260E+00	 1.728E+01	-4.621E+00	 2.018E+00	 3.630E+01	 1.915E-01	 4.285E-01	 2.688E+00	 2.094E-01	 4.997E-02	 1.200E-01	 1.862E-02	-1.150E-01	-5.244E+00
  10.024	 1.721E+01	 1.976E+00	 3.495E+00	 2.915E+00	 4.374E+02	 2.623E+00	 1.427E+00	 1.954E+01	-4.647E+00	 2.029E+00	 3.631E+01	 2.011E-01	 4.122E-01	 2.649E+00	 2.092E-01	 4.962E-02	 1.182E-01	 1.842E-02	-1.117E-01	-5.184E+00
  10.032	 1.729E+01	 2.623E+00	 3.507E+00	 2.685E+00	 4.375E+02	 2.634E+00	 1.511E+00	-1.562E+00	-4.673E+00	 2.040E+00	 3.632E+01	 1.767E-01	 3.833E-01	 2.628E+00	 2.089E-01	 4.979E-02	 1.164E-01	 1.823E-02	-1.082E-01	-5.129E+00
  10.040	 1.737E+01	 3.019E+00	 3.461E+00	 2.184E+00	 4.376E+02	 2.646E+00	 1.388E+00	-2.911E+01	-4.699E+00	 2.052E+00	 3.633E+01	 1.273E-01	 3.389E-01	 2.623E+00	 2.086E-01	 5.075E-02	 1.147E-01	 1.804E-02	-1.047E-01	-5.129E+00
  10.048	 1.746E+01	 3.199E+00	 3.362E+00	 1.524E+00	 4.377E+02	 2.656E+00	 1.073E+00	-4.766E+01	-4.724E+00	 2.063E+00	 3.636E+01	 6.638E-02	 2.856E-01	 2.620E+00	 2.083E-01	 5.481E-02	 1.130E-01	 1.785E-02	-1.018E-01	-5.186E+00
  10.056	 1.743E+01	 3.347E+00	 3.218E+00	 1.115E+00	 4.378E+02	 2.663E+00	 6.785E-01	-4.602E+01	-4.746E+00	 2.167E+00	 3.639E+01	-4.581E-03	 2.405E-01	 2.616E+00	 2.081E-01	 5.687E-02	 1.133E-01	 1.788E-02	-9.984E-02	-5.236E+00
  10.064	 1.737E+01	 3.452E+00	 3.045E+00	 1.479E+00	 4.379E+02	 2.667E+00	 3.891E-01	-2.687E+01	-4.766E+00	 2.301E+00	 3.641E+01	-8.222E-02	 2.015E-01	 2.609E+00	 2.080E-01	 5.593E-02	 1.144E-01	 1.799E-02	-9.866E-02	-5.226E+00
  10.072	 1.731E+01	 3.505E+00	 2.862E+00	 2.181E+00	 4.379E+02	 2.670E+00	 1.985E-01	-2.445E+01	-4.783E+00	 2.434E+00	 3.643E+01	-1.596E-01	 1.678E-01	 2.593E+00	 2.078E-01	 5.485E-02	 1.155E-01	 1.809E-02	-9.800E-02	-5.171E+00
  10.080	 1.725E+01	 3.500E+00	 2.566E+00	 2.770E+00	 4.380E+02	 2.670E+00	-4.163E-02	-3.562E+01	-4.800E+00	 2.567E+00	 3.645E+01	-2.294E-01	 1.492E-01	 2.580E+00	 2.074E-01	 5.219E-02	 1.166E-01	 1.820E-02	-9.783E-02	-5.131E+00
  10.088	 1.719E+01	 3.439E+00	 1.997E+00	 3.076E+00	 4.381E+02	 2.669E+00	-3.390E-01	-3.555E+01	-4.814E+00	 2.698E+00	 3.647E+01	-2.803E-01	 1.497E-01	 2.558E+00	 2.072E-01	 4.936E-02	 1.177E-01	 1.830E-02	-9.834E-02	-5.147E+00
  10.096	 1.713E+01	 3.325E+00	 1.348E+00	 3.245E+00	 4.381E+02	 2.665E+00	-5.704E-01	-2.141E+01	-4.827E+00	 2.829E+00	 3.649E+01	-2.959E-01	 1.684E-01	 2.544E+00	 2.070E-01	 4.971E-02	 1.188E-01	 1.841E-02	-9.948E-02	-5.188E+00
  10.104	 1.707E+01	 3.171E+00	 1.143E+00	 3.382E+00	 4.382E+02	 2.660E+00	-6.865E-01	-8.736E+00	-4.838E+00	 2.876E+00	 3.651E+01	-2.656E-01	 2.002E-01	 2.548E+00	 2.069E-01	 5.099E-02	 1.200E-01	 1.853E-02	-1.010E-01	-5.203E+00
  10.112	 1.701E+01	 2.993E+00	 1.678E+00	 3.473E+00	 4.382E+02	 2.654E+00	-7.601E-01	-1.338E+01	-4.848E+00	 2.841E+00	 3.652E+01	-1.915E-01	 2.405E-01	 2.561E+00	 2.068E-01	 5.276E-02	 1.212E-01	 1.865E-02	-1.027E-01	-5.181E+00
  10.120	 1.695E+01	 2.808E+00	 2.376E+00	 3.509E+00	 4.383E+02	 2.648E+00	-9.320E-01	-2.922E+01	-4.857E+00	 2.804E+00	 3.652E+01	-9.109E-02	 2.842E-01	 2.566E+00	 2.066E-01	 5.256E-02	 1.225E-01	 1.877E-02	-1.047E-01	-5.154E+00
  10.128	 1.688E+01	 2.423E+00	 2.893E+00	 3.488E+00	 4.383E+02	 2.639E+00	-1.191E+00	-3.179E+01	-4.864E+00	 2.765E+00	 3.651E+01	 1.401E-02	 3.268E-01	 2.559E+00	 2.064E-01	 4.911E-02	 1.237E-01	 1.890E-02	-1.073E-01	-5.159E+00
  10.136	 1.682E+01	 1.798E+00	 3.128E+00	 3.410E+00	 4.384E+02	 2.629E+00	-1.381E+00	-1.255E+01	-4.869E+00	 2.724E+00	 3.649E+01	 1.048E-01	 3.653E-01	 2.561E+00	 2.063E-01	 4.595E-02	 1.250E-01	 1.902E-02	-1.104E-01	-5.198E+00
  10.144	 1.676E+01	 1.204E+00	 3.290E+00	 3.284E+00	 4.385E+02	 2.617E+00	-1.371E+00	 1.539E+01	-4.874E+00	 2.681E+00	 3.649E+01	 1.697E-01	 3.916E-01	 2.585E+00	 2.061E-01	 4.395E-02	 1.264E-01	 1.915E-02	-1.137E-01	-5.228E+00
  10.152	 1.670E+01	 1.244E+00	 3.414E+00	 3.121E+00	 4.385E+02	 2.607E+00	-1.147E+00	 3.745E+01	-4.878E+00	 2.586E+00	 3.649E+01	 2.004E-01	 4.012E-01	 2.606E+00	 2.060E-01	 4.194E-02	 1.276E-01	 1.927E-02	-1.167E-01	-5.209E+00
  10.160	 1.666E+01	 1.889E+00	 3.490E+00	 2.939E+00	 4.386E+02	 2.599E+00	-8.599E-01	 2.810E+01	-4.885E+00	 2.334E+00	 3.649E+01	 1.950E-01	 3.943E-01	 2.585E+00	 2.059E-01	 4.322E-02	 1.285E-01	 1.936E-02	-1.190E-01	-5.161E+00
  10.168	 1.662E+01	 2.556E+00	 3.509E+00	 2.727E+00	 4.386E+02	 2.593E+00	-7.572E-01	-2.353E+00	-4.892E+00	 2.082E+00	 3.650E+01	 1.632E-01	 3.732E-01	 2.542E+00	 2.056E-01	 4.562E-02	 1.295E-01	 1.945E-02	-1.209E-01	-5.136E+00
  10.176	 1.658E+01	 2.989E+00	 3.470E+00	 2.255E+00	 4.387E+02	 2.587E+00	-8.363E-01	-1.244E+01	-4.899E+00	 1.828E+00	 3.652E+01	 1.204E-01	 3.379E-01	 2.516E+00	 2.055E-01	 4.588E-02	 1.305E-01	 1.954E-02	-1.228E-01	-5.155E+00
  10.184	 1.655E+01	 3.179E+00	 3.377E+00	 1.598E+00	 4.387E+02	 2.580E+00	-9.005E-01	-2.354E+00	-4.904E+00	 1.571E+00	 3.653E+01	 6.613E-02	 2.943E-01	 2.523E+00	 2.053E-01	 4.652E-02	 1.314E-01	 1.963E-02	-1.249E-01	-5.189E+00
  10.192	 1.651E+01	 3.332E+00	 3.238E+00	 1.125E+00	 4.388E+02	 2.573E+00	-8.888E-01	 3.532E+00	-4.909E+00	 1.313E+00	 3.654E+01	-4.529E-03	 2.504E-01	 2.541E+00	 2.051E-01	 4.877E-02	 1.324E-01	 1.972E-02	-1.270E-01	-5.209E+00
  10.200	 1.647E+01	 3.443E+00	 3.067E+00	 1.409E+00	 4.388E+02	 2.565E+00	-8.723E-01	-1.388E+00	-4.914E+00	 1.053E+00	 3.656E+01	-8.380E-02	 2.071E-01	 2.532E+00	 2.051E-01	 5.099E-02	 1.334E-01	 1.981E-02	-1.291E-01	-5.202E+00
  10.208	 1.641E+01	 3.502E+00	 2.883E+00	 2.106E+00	 4.388E+02	 2.558E+00	-9.240E-01	-1.035E+01	-4.918E+00	 1.245E+00	 3.657E+01	-1.637E-01	 1.685E-01	 2.483E+00	 2.048E-01	 5.157E-02	 1.347E-01	 1.994E-02	-1.312E-01	-5.178E+00
  10.216	 1.635E+01	 3.504E+00	 2.613E+00	 2.719E+00	 4.389E+02	 2.551E+00	-9.933E-01	-3.761E+00	-4.921E+00	 1.438E+00	 3.658E+01	-2.340E-01	 1.469E-01	 2.438E+00	 2.047E-01	 4.782E-02	 1.360E-01	 2.006E-02	-1.335E-01	-5.158E+00
  10.224	 1.630E+01	 3.449E+00	 2.065E+00	 3.057E+00	 4.389E+02	 2.543E+00	-9.702E-01	 7.503E+00	-4.923E+00	 1.631E+00	 3.659E+01	-2.814E-01	 1.436E-01	 2.427E+00	 2.045E-01	 4.458E-02	 1.374E-01	 2.019E-02	-1.358E-01	-5.152E+00
  10.232	 1.624E+01	 3.340E+00	 1.407E+00	 3.230E+00	 4.389E+02	 2.535E+00	-9.097E-01	 5.779E+00	-4.925E+00	 1.826E+00	 3.660E+01	-2.905E-01	 1.547E-01	 2.452E+00	 2.044E-01	 4.622E-02	 1.387E-01	 2.032E-02	-1.381E-01	-5.178E+00
  10.240	 1.618E+01	 3.189E+00	 1.124E+00	 3.371E+00	 4.389E+02	 2.528E+00	-8.576E-01	 1.086E+01	-4.927E+00	 2.021E+00	 3.662E+01	-2.565E-01	 1.792E-01	 2.482E+00	 2.044E-01	 4.698E-02	 1.401E-01	 2.045E-02	-1.402E-01	-5.203E+00
  10.248	 1.613E+01	 3.012E+00	 1.609E+00	 3.467E+00	 4.389E+02	 2.522E+00	-7.192E-01	 2.169E+01	-4.929E+00	 2.218E+00	 3.663E+01	-1.860E-01	 2.167E-01	 2.487E+00	 2.044E-01	 4.681E-02	 1.415E-01	 2.058E-02	-1.420E-01	-5.189E+00
  10.256	 1.611E+01	 2.828E+00	 2.313E+00	 3.509E+00	 4.390E+02	 2.517E+00	-5.686E-01	 1.316E+01	-4.931E+00	 2.297E+00	 3.663E+01	-9.223E-02	 2.591E-01	 2.471E+00	 2.043E-01	 4.817E-02	 1.418E-01	 2.061E-02	-1.435E-01	-5.157E+00
  10.264	 1.611E+01	 2.472E+00	 2.856E+00	 3.493E+00	 4.390E+02	 2.512E+00	-5.144E-01	 2.575E+00	-4.933E+00	 2.337E+00	 3.662E+01	 6.502E-03	 3.022E-01	 2.473E+00	 2.042E-01	 4.691E-02	 1.417E-01	 2.059E-02	-1.448E-01	-5.143E+00
  10.272	 1.611E+01	 1.863E+00	 3.112E+00	 3.420E+00	 4.390E+02	 2.508E+00	-4.964E-01	 5.138E+00	-4.935E+00	 2.376E+00	 3.661E+01	 9.590E-02	 3.443E-01	 2.490E+00	 2.041E-01	 4.441E-02	 1.416E-01	 2.058E-02	-1.460E-01	-5.166E+00
  10.280	 1.611E+01	 1.245E+00	 3.277E+00	 3.298E+00	 4.391E+02	 2.505E+00	-4.052E-01	 1.889E+01	-4.936E+00	 2.415E+00	 3.660E+01	 1.649E-01	 3.776E-01	 2.507E+00	 2.041E-01	 4.417E-02	 1.414E-01	 2.056E-02	-1.470E-01	-5.209E+00
  10.288	 1.611E+01	 1.206E+00	 3.406E+00	 3.137E+00	 4.391E+02	 2.502E+00	-1.715E-01	 3.970E+01	-4.938E+00	 2.454E+00	 3.659E+01	 2.040E-01	 3.915E-01	 2.500E+00	 2.039E-01	 4.402E-02	 1.413E-01	 2.055E-02	-1.477E-01	-5.214E+00
  10.296	 1.611E+01	 1.825E+00	 3.486E+00	 2.955E+00	 4.391E+02	 2.502E+00	 1.791E-01	 4.289E+01	-4.941E+00	 2.494E+00	 3.659E+01	 2.069E-01	 3.866E-01	 2.456E+00	 2.039E-01	 4.517E-02	 1.412E-01	 2.053E-02	-1.477E-01	-5.165E+00
  10.304	 1.610E+01	 2.505E+00	 3.511E+00	 2.754E+00	 4.391E+02	 2.505E+00	 4.572E-01	 2.530E+01	-4.945E+00	 2.652E+00	 3.659E+01	 1.770E-01	 3.674E-01	 2.424E+00	 2.038E-01	 4.545E-02	 1.415E-01	 2.055E-02	-1.468E-01	-5.121E+00
  10.312	 1.607E+01	 2.965E+00	 3.477E+00	 2.307E+00	 4.391E+02	 2.509E+00	 6.022E-01	 1.237E+01	-4.951E+00	 2.927E+00	 3.659E+01	 1.277E-01	 3.344E-01	 2.434E+00	 2.037E-01	 4.431E-02	 1.421E-01	 2.061E-02	-1.455E-01	-5.123E+00
  10.320	 1.605E+01	 3.165E+00	 3.388E+00	 1.657E+00	 4.392E+02	 2.514E+00	 6.820E-01	 1.020E+01	-4.956E+00	 3.204E+00	 3.660E+01	 6.783E-02	 2.907E-01	 2.454E+00	 2.036E-01	 4.560E-02	 1.427E-01	 2.067E-02	-1.440E-01	-5.165E+00
  10.328	 1.602E+01	 3.321E+00	 3.252E+00	 1.142E+00	 4.392E+02	 2.520E+00	 8.006E-01	 2.154E+01	-4.962E+00	 3.481E+00	 3.662E+01	-1.418E-03	 2.484E-01	 2.458E+00	 2.035E-01	 4.727E-02	 1.434E-01	 2.073E-02	-1.422E-01	-5.199E+00
  10.336	 1.599E+01	 3.436E+00	 3.082E+00	 1.360E+00	 4.392E+02	 2.527E+00	 1.036E+00	 3.359E+01	-4.968E+00	 3.759E+00	 3.663E+01	-7.653E-02	 2.094E-01	 2.461E+00	 2.037E-01	 4.790E-02	 1.440E-01	 2.079E-02	-1.400E-01	-5.177E+00
  10.344	 1.596E+01	 3.499E+00	 2.899E+00	 2.047E+00	 4.392E+02	 2.537E+00	 1.257E+00	 1.799E+01	-4.976E+00	 4.040E+00	 3.665E+01	-1.505E-01	 1.747E-01	 2.473E+00	 2.036E-01	 4.951E-02	 1.447E-01	 2.085E-02	-1.372E-01	-5.133E+00
  10.352	 1.595E+01	 3.505E+00	 2.648E+00	 2.677E+00	 4.393E+02	 2.547E+00	 1.323E+00	 1.773E+00	-4.984E+00	 4.273E+00	 3.667E+01	-2.165E-01	 1.586E-01	 2.509E+00	 2.035E-01	 4.797E-02	 1.450E-01	 2.088E-02	-1.341E-01	-5.124E+00
  10.360	 1.597E+01	 3.454E+00	 2.119E+00	 3.042E+00	 4.393E+02	 2.558E+00	 1.334E+00	 1.241E+00	-4.992E+00	 4.354E+00	 3.668E+01	-2.620E-01	 1.599E-01	 2.522E+00	 2.034E-01	 4.756E-02	 1.444E-01	 2.082E-02	-1.310E-01	-5.149E+00
  10.368	 1.599E+01	 3.349E+00	 1.457E+00	 3.216E+00	 4.393E+02	 2.569E+00	 1.351E+00	 2.745E+00	-5.001E+00	 4.435E+00	 3.669E+01	-2.748E-01	 1.727E-01	 2.505E+00	 2.033E-01	 5.186E-02	 1.438E-01	 2.075E-02	-1.278E-01	-5.187E+00
  10.376	 1.601E+01	 3.202E+00	 1.117E+00	 3.361E+00	 4.394E+02	 2.579E+00	 1.402E+00	 1.294E+01	-5.009E+00	 4.516E+00	 3.671E+01	-2.456E-01	 1.988E-01	 2.494E+00	 2.034E-01	 5.265E-02	 1.431E-01	 2.069E-02	-1.245E-01	-5.190E+00
  10.384	 1.603E+01	 3.026E+00	 1.557E+00	 3.460E+00	 4.394E+02	 2.591E+00	 1.559E+00	 2.194E+01	-5.018E+00	 4.598E+00	 3.672E+01	-1.752E-01	 2.410E-01	 2.493E+00	 2.034E-01	 5.072E-02	 1.425E-01	 2.063E-02	-1.210E-01	-5.145E+00
  10.392	 1.605E+01	 2.843E+00	 2.262E+00	 3.506E+00	 4.395E+02	 2.604E+00	 1.661E+00	-1.011E+00	-5.028E+00	 4.681E+00	 3.672E+01	-7.733E-02	 2.893E-01	 2.481E+00	 2.032E-01	 5.193E-02	 1.419E-01	 2.056E-02	-1.171E-01	-5.108E+00
  10.400	 1.607E+01	 2.512E+00	 2.825E+00	 3.495E+00	 4.395E+02	 2.617E+00	 1.529E+00	-2.892E+01	-5.039E+00	 4.764E+00	 3.670E+01	 2.263E-02	 3.345E-01	 2.460E+00	 2.030E-01	 5.430E-02	 1.413E-01	 2.050E-02	-1.133E-01	-5.130E+00
  10.408	 1.592E+01	 1.917E+00	 3.099E+00	 3.426E+00	 4.395E+02	 2.628E+00	 1.270E+00	-3.083E+01	-5.048E+00	 4.683E+00	 3.666E+01	 1.035E-01	 3.682E-01	 2.417E+00	 2.029E-01	 5.713E-02	 1.453E-01	 2.089E-02	-1.100E-01	-5.180E+00
  10.416	 1.577E+01	 1.286E+00	 3.265E+00	 3.307E+00	 4.395E+02	 2.638E+00	 1.105E+00	-7.439E+00	-5.055E+00	 4.598E+00	 3.664E+01	 1.584E-01	 3.820E-01	 2.382E+00	 2.028E-01	 5.742E-02	 1.496E-01	 2.129E-02	-1.073E-01	-5.196E+00
  10.424	 1.562E+01	 1.185E+00	 3.397E+00	 3.150E+00	 4.395E+02	 2.647E+00	 1.158E+00	 1.779E+01	-5.062E+00	 4.512E+00	 3.663E+01	 1.871E-01	 3.758E-01	 2.381E+00	 2.027E-01	 5.374E-02	 1.540E-01	 2.170E-02	-1.046E-01	-5.154E+00
  10.432	 1.546E+01	 1.777E+00	 3.481E+00	 2.969E+00	 4.395E+02	 2.656E+00	 1.275E+00	 3.695E+00	-5.070E+00	 4.425E+00	 3.663E+01	 1.869E-01	 3.594E-01	 2.382E+00	 2.027E-01	 5.397E-02	 1.586E-01	 2.213E-02	-1.017E-01	-5.101E+00
  10.440	 1.531E+01	 2.464E+00	 3.509E+00	 2.776E+00	 4.395E+02	 2.666E+00	 1.145E+00	-3.581E+01	-5.078E+00	 4.336E+00	 3.664E+01	 1.658E-01	 3.338E-01	 2.372E+00	 2.025E-01	 5.645E-02	 1.633E-01	 2.257E-02	-9.879E-02	-5.093E+00
  10.448	 1.516E+01	 2.943E+00	 3.479E+00	 2.350E+00	 4.395E+02	 2.674E+00	 7.687E-01	-5.285E+01	-5.085E+00	 4.244E+00	 3.664E+01	 1.316E-01	 2.928E-01	 2.350E+00	 2.024E-01	 5.848E-02	 1.683E-01	 2.302E-02	-9.656E-02	-5.134E+00
  10.456	 1.508E+01	 3.154E+00	 3.394E+00	 1.709E+00	 4.395E+02	 2.679E+00	 3.477E-01	-4.989E+01	-5.088E+00	 4.242E+00	 3.666E+01	 8.023E-02	 2.393E-01	 2.303E+00	 2.023E-01	 6.308E-02	 1.710E-01	 2.327E-02	-9.531E-02	-5.174E+00
  10.464	 1.502E+01	 3.311E+00	 3.262E+00	 1.165E+00	 4.395E+02	 2.680E+00	 1.794E-02	-2.937E+01	-5.090E+00	 4.270E+00	 3.668E+01	 4.659E-03	 1.978E-01	 2.284E+00	 2.023E-01	 6.209E-02	 1.730E-01	 2.345E-02	-9.497E-02	-5.178E+00
  10.472	 1.496E+01	 3.429E+00	 3.095E+00	 1.326E+00	 4.395E+02	 2.679E+00	-8.664E-02	 1.618E+00	-5.089E+00	 4.297E+00	 3.669E+01	-8.733E-02	 1.765E-01	 2.327E+00	 2.024E-01	 5.421E-02	 1.750E-01	 2.363E-02	-9.512E-02	-5.145E+00
  10.480	 1.490E+01	 3.496E+00	 2.913E+00	 2.000E+00	 4.394E+02	 2.679E+00	-3.326E-02	 5.749E+00	-5.089E+00	 4.325E+00	 3.670E+01	-1.755E-01	 1.590E-01	 2.356E+00	 2.023E-01	 5.070E-02	 1.771E-01	 2.381E-02	-9.526E-02	-5.106E+00
  10.488	 1.484E+01	 3.506E+00	 2.677E+00	 2.642E+00	 4.394E+02	 2.679E+00	-5.431E-02	-1.167E+01	-5.090E+00	 4.353E+00	 3.670E+01	-2.426E-01	 1.460E-01	 2.353E+00	 2.022E-01	 5.093E-02	 1.792E-01	 2.400E-02	-9.534E-02	-5.102E+00
  10.496	 1.478E+01	 3.459E+00	 2.167E+00	 3.028E+00	 4.394E+02	 2.678E+00	-1.974E-01	-2.433E+01	-5.089E+00	 4.380E+00	 3.671E+01	-2.670E-01	 1.402E-01	 2.289E+00	 2.022E-01	 5.560E-02	 1.813E-01	 2.419E-02	-9.564E-02	-5.115E+00
  10.504	 1.470E+01	 3.358E+00	 1.507E+00	 3.205E+00	 4.394E+02	 2.675E+00	-4.406E-01	-3.506E+01	-5.088E+00	 4.365E+00	 3.671E+01	-2.487E-01	 1.516E-01	 2.227E+00	 2.022E-01	 6.363E-02	 1.842E-01	 2.445E-02	-9.642E-02	-5.137E+00
  10.512	 1.461E+01	 3.213E+00	 1.124E+00	 3.352E+00	 4.393E+02	 2.671E+00	-7.053E-01	-2.597E+01	-5.085E+00	 4.306E+00	 3.671E+01	-2.018E-01	 1.882E-01	 2.253E+00	 2.022E-01	 6.315E-02	 1.878E-01	 2.477E-02	-9.784E-02	-5.160E+00
  10.520	 1.451E+01	 3.040E+00	 1.516E+00	 3.455E+00	 4.393E+02	 2.664E+00	-7.986E-01	 3.285E+00	-5.080E+00	 4.245E+00	 3.668E+01	-1.366E-01	 2.359E-01	 2.322E+00	 2.024E-01	 5.458E-02	 1.915E-01	 2.510E-02	-9.969E-02	-5.158E+00
  10.528	 1.442E+01	 2.857E+00	 2.218E+00	 3.506E+00	 4.393E+02	 2.658E+00	-6.691E-01	 2.670E+01	-5.075E+00	 4.184E+00	 3.665E+01	-5.873E-02	 2.713E-01	 2.322E+00	 2.021E-01	 4.745E-02	 1.954E-01	 2.544E-02	-1.014E-01	-5.135E+00
  10.536	 1.432E+01	 2.548E+00	 2.795E+00	 3.498E+00	 4.392E+02	 2.654E+00	-4.060E-01	 3.659E+01	-5.072E+00	 4.123E+00	 3.662E+01	 3.008E-02	 2.954E-01	 2.262E+00	 2.021E-01	 4.559E-02	 1.993E-01	 2.578E-02	-1.027E-01	-5.110E+00
  10.544	 1.423E+01	 1.969E+00	 3.085E+00	 3.434E+00	 4.391E+02	 2.652E+00	-1.456E-01	 2.410E+01	-5.071E+00	 4.063E+00	 3.659E+01	 1.111E-01	 3.223E-01	 2.176E+00	 2.023E-01	 5.387E-02	 2.033E-01	 2.613E-02	-1.033E-01	-5.097E+00
  10.552	 1.416E+01	 1.330E+00	 3.254E+00	 3.319E+00	 4.391E+02	 2.651E+00	-3.512E-02	 6.480E+00	-5.071E+00	 4.041E+00	 3.656E+01	 1.605E-01	 3.456E-01	 2.167E+00	 2.023E-01	 6.249E-02	 2.065E-01	 2.640E-02	-1.034E-01	-5.121E+00
  10.560	 1.416E+01	 1.170E+00	 3.388E+00	 3.164E+00	 4.390E+02	 2.651E+00	 4.128E-02	 1.719E+01	-5.071E+00	 4.133E+00	 3.654E+01	 1.738E-01	 3.479E-01	 2.254E+00	 2.025E-01	 6.002E-02	 2.064E-01	 2.640E-02	-1.034E-01	-5.145E+00
  10.568	 1.416E+01	 1.727E+00	 3.476E+00	 2.985E+00	 4.390E+02	 2.652E+00	 2.417E-01	 3.125E+01	-5.072E+00	 4.225E+00	 3.655E+01	 1.612E-01	 3.276E-01	 2.319E+00	 2.026E-01	 5.442E-02	 2.064E-01	 2.641E-02	-1.031E-01	-5.145E+00
  10.576	 1.416E+01	 2.419E+00	 3.509E+00	 2.797E+00	 4.390E+02	 2.655E+00	 5.014E-01	 3.221E+01	-5.075E+00	 4.320E+00	 3.656E+01	 1.396E-01	 2.964E-01	 2.292E+00	 2.025E-01	 5.006E-02	 2.064E-01	 2.641E-02	-1.022E-01	-5.146E+00
  10.584	 1.416E+01	 2.917E+00	 3.484E+00	 2.394E+00	 4.389E+02	 2.660E+00	 7.609E-01	 3.431E+01	-5.079E+00	 4.415E+00	 3.657E+01	 1.082E-01	 2.657E-01	 2.239E+00	 2.026E-01	 4.711E-02	 2.063E-01	 2.641E-02	-1.006E-01	-5.151E+00
  10.592	 1.417E+01	 3.139E+00	 3.404E+00	 1.762E+00	 4.389E+02	 2.668E+00	 1.044E+00	 3.682E+01	-5.085E+00	 4.513E+00	 3.658E+01	 6.178E-02	 2.306E-01	 2.205E+00	 2.028E-01	 4.946E-02	 2.063E-01	 2.642E-02	-9.844E-02	-5.152E+00
  10.600	 1.417E+01	 3.299E+00	 3.277E+00	 1.192E+00	 4.388E+02	 2.677E+00	 1.368E+00	 4.576E+01	-5.093E+00	 4.613E+00	 3.660E+01	-6.119E-04	 1.995E-01	 2.228E+00	 2.027E-01	 5.149E-02	 2.063E-01	 2.642E-02	-9.554E-02	-5.141E+00
  10.608	 1.416E+01	 3.420E+00	 3.113E+00	 1.285E+00	 4.388E+02	 2.690E+00	 1.779E+00	 5.362E+01	-5.104E+00	 4.886E+00	 3.661E+01	-6.664E-02	 1.795E-01	 2.274E+00	 2.031E-01	 5.156E-02	 2.065E-01	 2.645E-02	-9.175E-02	-5.108E+00
  10.616	 1.416E+01	 3.492E+00	 2.930E+00	 1.943E+00	 4.387E+02	 2.706E+00	 2.147E+00	 3.442E+01	-5.119E+00	 5.162E+00	 3.661E+01	-1.292E-01	 1.662E-01	 2.275E+00	 2.030E-01	 5.373E-02	 2.068E-01	 2.647E-02	-8.699E-02	-5.092E+00
  10.624	 1.415E+01	 3.507E+00	 2.709E+00	 2.597E+00	 4.387E+02	 2.724E+00	 2.305E+00	 6.656E+00	-5.135E+00	 5.441E+00	 3.660E+01	-1.813E-01	 1.618E-01	 2.254E+00	 2.030E-01	 5.372E-02	 2.070E-01	 2.650E-02	-8.163E-02	-5.123E+00
  10.632	 1.415E+01	 3.466E+00	 2.220E+00	 3.008E+00	 4.386E+02	 2.742E+00	 2.310E+00	-3.362E+00	-5.152E+00	 5.721E+00	 3.658E+01	-2.143E-01	 1.620E-01	 2.228E+00	 2.031E-01	 5.237E-02	 2.073E-01	 2.653E-02	-7.614E-02	-5.159E+00
  10.640	 1.415E+01	 3.371E+00	 1.561E+00	 3.191E+00	 4.386E+02	 2.760E+00	 2.294E+00	 2.378E+00	-5.170E+00	 6.001E+00	 3.656E+01	-2.216E-01	 1.689E-01	 2.204E+00	 2.032E-01	 5.134E-02	 2.075E-01	 2.655E-02	-7.069E-02	-5.168E+00
  10.648	 1.414E+01	 3.230E+00	 1.124E+00	 3.341E+00	 4.385E+02	 2.779E+00	 2.397E+00	 2.538E+01	-5.189E+00	 6.282E+00	 3.655E+01	-2.001E-01	 1.932E-01	 2.183E+00	 2.033E-01	 4.793E-02	 2.078E-01	 2.658E-02	-6.514E-02	-5.132E+00
  10.656	 1.411E+01	 3.059E+00	 1.455E+00	 3.448E+00	 4.385E+02	 2.799E+00	 2.690E+00	 4.287E+01	-5.210E+00	 6.364E+00	 3.654E+01	-1.511E-01	 2.345E-01	 2.180E+00	 2.035E-01	 4.760E-02	 2.093E-01	 2.672E-02	-5.908E-02	-5.074E+00
  10.664	 1.407E+01	 2.876E+00	 2.154E+00	 3.503E+00	 4.384E+02	 2.822E+00	 2.970E+00	 2.178E+01	-5.234E+00	 6.382E+00	 3.651E+01	-8.534E-02	 2.748E-01	 2.188E+00	 2.033E-01	 5.344E-02	 2.112E-01	 2.689E-02	-5.228E-02	-5.051E+00
  10.672	 1.403E+01	 2.593E+00	 2.752E+00	 3.502E+00	 4.383E+02	 2.846E+00	 3.001E+00	-1.303E+01	-5.260E+00	 6.402E+00	 3.647E+01	-1.329E-02	 3.031E-01	 2.203E+00	 2.036E-01	 5.730E-02	 2.132E-01	 2.706E-02	-4.514E-02	-5.076E+00
  10.680	 1.399E+01	 2.034E+00	 3.068E+00	 3.443E+00	 4.383E+02	 2.869E+00	 2.794E+00	-3.607E+01	-5.286E+00	 6.422E+00	 3.644E+01	 4.888E-02	 3.182E-01	 2.191E+00	 2.036E-01	 5.900E-02	 2.152E-01	 2.724E-02	-3.826E-02	-5.103E+00
  10.688	 1.395E+01	 1.382E+00	 3.239E+00	 3.332E+00	 4.382E+02	 2.891E+00	 2.474E+00	-4.035E+01	-5.311E+00	 6.441E+00	 3.642E+01	 1.005E-01	 3.211E-01	 2.159E+00	 2.038E-01	 5.890E-02	 2.172E-01	 2.742E-02	-3.205E-02	-5.115E+00
  10.696	 1.390E+01	 1.143E+00	 3.377E+00	 3.181E+00	 4.381E+02	 2.909E+00	 2.199E+00	-2.611E+01	-5.336E+00	 6.459E+00	 3.641E+01	 1.406E-01	 3.144E-01	 2.161E+00	 2.040E-01	 5.649E-02	 2.193E-01	 2.760E-02	-2.658E-02	-5.112E+00
  10.704	 1.388E+01	 1.655E+00	 3.470E+00	 3.004E+00	 4.381E+02	 2.926E+00	 2.054E+00	-1.334E+01	-5.360E+00	 6.259E+00	 3.641E+01	 1.592E-01	 3.007E-01	 2.203E+00	 2.040E-01	 5.506E-02	 2.207E-01	 2.773E-02	-2.158E-02	-5.090E+00
  10.712	 1.386E+01	 2.352E+00	 3.509E+00	 2.822E+00	 4.380E+02	 2.942E+00	 1.929E+00	-1.958E+01	-5.385E+00	 5.841E+00	 3.640E+01	 1.562E-01	 2.773E-01	 2.237E+00	 2.041E-01	 5.662E-02	 2.214E-01	 2.780E-02	-1.686E-02	-5.073E+00
  10.720	 1.385E+01	 2.878E+00	 3.490E+00	 2.453E+00	 4.379E+02	 2.957E+00	 1.726E+00	-3.197E+01	-5.409E+00	 5.423E+00	 3.640E+01	 1.254E-01	 2.396E-01	 2.225E+00	 2.042E-01	 6.011E-02	 2.222E-01	 2.787E-02	-1.254E-02	-5.063E+00
  10.728	 1.383E+01	 3.120E+00	 3.415E+00	 1.840E+00	 4.379E+02	 2.969E+00	 1.399E+00	-5.019E+01	-5.434E+00	 5.002E+00	 3.641E+01	 6.882E-02	 1.903E-01	 2.166E+00	 2.044E-01	 6.601E-02	 2.230E-01	 2.794E-02	-8.861E-03	-5.056E+00
  10.736	 1.382E+01	 3.283E+00	 3.291E+00	 1.241E+00	 4.378E+02	 2.979E+00	 9.474E-01	-5.952E+01	-5.457E+00	 4.580E+00	 3.644E+01	 5.484E-04	 1.522E-01	 2.136E+00	 2.046E-01	 6.915E-02	 2.237E-01	 2.802E-02	-6.140E-03	-5.078E+00
  10.744	 1.381E+01	 3.409E+00	 3.131E+00	 1.240E+00	 4.378E+02	 2.984E+00	 4.891E-01	-5.391E+01	-5.479E+00	 4.156E+00	 3.646E+01	-6.663E-02	 1.363E-01	 2.181E+00	 2.047E-01	 6.823E-02	 2.245E-01	 2.809E-02	-4.526E-03	-5.104E+00
  10.752	 1.380E+01	 3.486E+00	 2.951E+00	 1.864E+00	 4.377E+02	 2.987E+00	 5.758E-02	-5.674E+01	-5.498E+00	 3.872E+00	 3.646E+01	-1.269E-01	 1.305E-01	 2.228E+00	 2.047E-01	 6.680E-02	 2.252E-01	 2.816E-02	-3.947E-03	-5.101E+00
  10.760	 1.379E+01	 3.508E+00	 2.748E+00	 2.532E+00	 4.376E+02	 2.985E+00	-4.264E-01	-6.292E+01	-5.517E+00	 4.016E+00	 3.646E+01	-1.787E-01	 1.303E-01	 2.219E+00	 2.048E-01	 6.612E-02	 2.258E-01	 2.821E-02	-4.460E-03	-5.091E+00
  10.768	 1.378E+01	 3.473E+00	 2.295E+00	 2.976E+00	 4.376E+02	 2.980E+00	-9.239E-01	-6.013E+01	-5.533E+00	 4.159E+00	 3.645E+01	-2.087E-01	 1.436E-01	 2.167E+00	 2.050E-01	 6.706E-02	 2.263E-01	 2.826E-02	-6.154E-03	-5.077E+00
  10.776	 1.377E+01	 3.383E+00	 1.649E+00	 3.170E+00	 4.375E+02	 2.971E+00	-1.376E+00	-5.137E+01	-5.547E+00	 4.300E+00	 3.644E+01	-2.118E-01	 1.780E-01	 2.133E+00	 2.053E-01	 6.990E-02	 2.269E-01	 2.832E-02	-8.977E-03	-5.083E+00
  10.784	 1.377E+01	 3.248E+00	 1.153E+00	 3.323E+00	 4.375E+02	 2.958E+00	-1.707E+00	-2.933E+01	-5.560E+00	 4.439E+00	 3.642E+01	-1.884E-01	 2.290E-01	 2.174E+00	 2.053E-01	 6.844E-02	 2.274E-01	 2.837E-02	-1.273E-02	-5.112E+00
  10.792	 1.376E+01	 3.081E+00	 1.386E+00	 3.436E+00	 4.374E+02	 2.944E+00	-1.837E+00	-5.948E+00	-5.572E+00	 4.579E+00	 3.638E+01	-1.337E-01	 2.787E-01	 2.258E+00	 2.055E-01	 6.408E-02	 2.280E-01	 2.843E-02	-1.700E-02	-5.118E+00
  10.800	 1.376E+01	 2.899E+00	 2.067E+00	 3.498E+00	 4.374E+02	 2.929E+00	-1.874E+00	-7.264E+00	-5.586E+00	 4.720E+00	 3.634E+01	-5.583E-02	 3.127E-01	 2.282E+00	 2.056E-01	 6.215E-02	 2.285E-01	 2.848E-02	-2.140E-02	-5.099E+00
  10.808	 1.384E+01	 2.649E+00	 2.688E+00	 3.503E+00	 4.373E+02	 2.914E+00	-1.982E+00	-1.991E+01	-5.600E+00	 4.652E+00	 3.629E+01	 2.702E-02	 3.351E-01	 2.252E+00	 2.057E-01	 6.329E-02	 2.247E-01	 2.817E-02	-2.598E-02	-5.095E+00
  10.816	 1.392E+01	 2.123E+00	 3.044E+00	 3.452E+00	 4.373E+02	 2.897E+00	-2.160E+00	-2.214E+01	-5.614E+00	 4.585E+00	 3.625E+01	 9.238E-02	 3.506E-01	 2.221E+00	 2.060E-01	 6.653E-02	 2.209E-01	 2.786E-02	-3.092E-02	-5.114E+00
  10.824	 1.399E+01	 1.468E+00	 3.216E+00	 3.349E+00	 4.372E+02	 2.879E+00	-2.277E+00	-3.000E+00	-5.627E+00	 4.519E+00	 3.621E+01	 1.271E-01	 3.506E-01	 2.219E+00	 2.061E-01	 6.859E-02	 2.173E-01	 2.756E-02	-3.624E-02	-5.137E+00
  10.832	 1.407E+01	 1.133E+00	 3.359E+00	 3.204E+00	 4.372E+02	 2.861E+00	-2.178E+00	 2.662E+01	-5.642E+00	 4.454E+00	 3.620E+01	 1.355E-01	 3.288E-01	 2.250E+00	 2.062E-01	 6.646E-02	 2.137E-01	 2.726E-02	-4.156E-02	-5.123E+00
  10.840	 1.415E+01	 1.562E+00	 3.458E+00	 3.030E+00	 4.371E+02	 2.845E+00	-1.918E+00	 3.194E+01	-5.659E+00	 4.393E+00	 3.621E+01	 1.280E-01	 2.927E-01	 2.263E+00	 2.063E-01	 6.600E-02	 2.102E-01	 2.697E-02	-4.638E-02	-5.083E+00
  10.848	 1.423E+01	 2.260E+00	 3.504E+00	 2.850E+00	 4.371E+02	 2.830E+00	-1.752E+00	 7.959E+00	-5.678E+00	 4.335E+00	 3.623E+01	 1.161E-01	 2.533E-01	 2.231E+00	 2.063E-01	 6.899E-02	 2.067E-01	 2.668E-02	-5.067E-02	-5.081E+00
  10.856	 1.424E+01	 2.820E+00	 3.494E+00	 2.527E+00	 4.370E+02	 2.816E+00	-1.763E+00	-6.639E+00	-5.698E+00	 4.528E+00	 3.626E+01	 9.862E-02	 2.177E-01	 2.204E+00	 2.065E-01	 7.128E-02	 2.063E-01	 2.665E-02	-5.482E-02	-5.121E+00
  10.864	 1.423E+01	 3.094E+00	 3.428E+00	 1.941E+00	 4.370E+02	 2.802E+00	-1.797E+00	 1.107E-02	-5.719E+00	 4.804E+00	 3.628E+01	 6.481E-02	 1.805E-01	 2.184E+00	 2.066E-01	 7.414E-02	 2.068E-01	 2.671E-02	-5.906E-02	-5.150E+00
  10.872	 1.421E+01	 3.260E+00	 3.312E+00	 1.312E+00	 4.369E+02	 2.788E+00	-1.749E+00	 1.252E+01	-5.741E+00	 5.081E+00	 3.630E+01	 6.832E-03	 1.485E-01	 2.169E+00	 2.067E-01	 7.477E-02	 2.074E-01	 2.676E-02	-6.328E-02	-5.138E+00
  10.880	 1.420E+01	 3.392E+00	 3.157E+00	 1.186E+00	 4.369E+02	 2.774E+00	-1.589E+00	 2.796E+01	-5.764E+00	 5.361E+00	 3.632E+01	-6.882E-02	 1.354E-01	 2.185E+00	 2.069E-01	 7.019E-02	 2.079E-01	 2.681E-02	-6.724E-02	-5.106E+00
  10.888	 1.419E+01	 3.477E+00	 2.980E+00	 1.755E+00	 4.368E+02	 2.763E+00	-1.309E+00	 4.042E+01	-5.790E+00	 5.643E+00	 3.632E+01	-1.391E-01	 1.347E-01	 2.201E+00	 2.071E-01	 6.868E-02	 2.084E-01	 2.687E-02	-7.065E-02	-5.093E+00
  10.896	 1.418E+01	 3.507E+00	 2.792E+00	 2.439E+00	 4.368E+02	 2.754E+00	-9.681E-01	 4.347E+01	-5.818E+00	 5.928E+00	 3.633E+01	-1.867E-01	 1.436E-01	 2.216E+00	 2.071E-01	 7.232E-02	 2.090E-01	 2.692E-02	-7.330E-02	-5.103E+00
  10.904	 1.415E+01	 3.480E+00	 2.385E+00	 2.927E+00	 4.367E+02	 2.747E+00	-6.589E-01	 3.093E+01	-5.849E+00	 6.202E+00	 3.632E+01	-2.014E-01	 1.615E-01	 2.239E+00	 2.073E-01	 7.705E-02	 2.106E-01	 2.707E-02	-7.516E-02	-5.111E+00
  10.912	 1.409E+01	 3.399E+00	 1.756E+00	 3.142E+00	 4.367E+02	 2.743E+00	-5.214E-01	 2.280E+00	-5.883E+00	 6.466E+00	 3.631E+01	-1.867E-01	 1.860E-01	 2.241E+00	 2.075E-01	 8.183E-02	 2.134E-01	 2.731E-02	-7.649E-02	-5.112E+00
  10.920	 1.403E+01	 3.270E+00	 1.197E+00	 3.300E+00	 4.367E+02	 2.738E+00	-5.817E-01	-1.198E+01	-5.918E+00	 6.733E+00	 3.629E+01	-1.605E-01	 2.245E-01	 2.245E+00	 2.076E-01	 8.061E-02	 2.162E-01	 2.756E-02	-7.779E-02	-5.125E+00
  10.928	 1.397E+01	 3.107E+00	 1.299E+00	 3.420E+00	 4.366E+02	 2.733E+00	-6.198E-01	 6.901E+00	-5.953E+00	 7.002E+00	 3.625E+01	-1.329E-01	 2.753E-01	 2.282E+00	 2.078E-01	 7.531E-02	 2.191E-01	 2.781E-02	-7.925E-02	-5.152E+00
  10.936	 1.391E+01	 2.927E+00	 1.951E+00	 3.491E+00	 4.366E+02	 2.729E+00	-4.470E-01	 3.548E+01	-5.988E+00	 7.275E+00	 3.622E+01	-1.026E-01	 3.238E-01	 2.317E+00	 2.079E-01	 7.381E-02	 2.220E-01	 2.806E-02	-8.053E-02	-5.170E+00
  10.944	 1.386E+01	 2.708E+00	 2.600E+00	 3.505E+00	 4.366E+02	 2.727E+00	-8.412E-02	 5.170E+01	-6.027E+00	 7.551E+00	 3.620E+01	-5.240E-02	 3.604E-01	 2.357E+00	 2.079E-01	 7.304E-02	 2.250E-01	 2.831E-02	-8.112E-02	-5.150E+00
  10.952	 1.384E+01	 2.225E+00	 3.007E+00	 3.463E+00	 4.366E+02	 2.728E+00	 3.124E-01	 4.204E+01	-6.069E+00	 7.751E+00	 3.619E+01	 2.304E-02	 3.859E-01	 2.370E+00	 2.081E-01	 7.484E-02	 2.260E-01	 2.840E-02	-8.077E-02	-5.109E+00
  10.960	 1.394E+01	 1.573E+00	 3.188E+00	 3.368E+00	 4.366E+02	 2.731E+00	 5.118E-01	 6.097E+00	-6.114E+00	 7.706E+00	 3.617E+01	 1.024E-01	 3.982E-01	 2.333E+00	 2.082E-01	 8.154E-02	 2.210E-01	 2.799E-02	-7.970E-02	-5.096E+00
  10.968	 1.405E+01	 1.138E+00	 3.337E+00	 3.228E+00	 4.366E+02	 2.735E+00	 4.428E-01	-1.833E+01	-6.160E+00	 7.664E+00	 3.615E+01	 1.631E-01	 3.894E-01	 2.317E+00	 2.083E-01	 8.435E-02	 2.162E-01	 2.758E-02	-7.854E-02	-5.124E+00
  10.976	 1.415E+01	 1.455E+00	 3.445E+00	 3.058E+00	 4.366E+02	 2.738E+00	 3.058E-01	-1.212E+01	-6.206E+00	 7.622E+00	 3.614E+01	 1.902E-01	 3.631E-01	 2.350E+00	 2.084E-01	 8.346E-02	 2.115E-01	 2.718E-02	-7.768E-02	-5.165E+00
  10.984	 1.426E+01	 2.145E+00	 3.500E+00	 2.877E+00	 4.366E+02	 2.740E+00	 2.611E-01	-2.036E-01	-6.251E+00	 7.582E+00	 3.614E+01	 1.815E-01	 3.244E-01	 2.384E+00	 2.083E-01	 8.308E-02	 2.069E-01	 2.679E-02	-7.704E-02	-5.175E+00
  10.992	 1.436E+01	 2.743E+00	 3.499E+00	 2.601E+00	 4.366E+02	 2.742E+00	 2.700E-01	 4.100E-01	-6.297E+00	 7.544E+00	 3.615E+01	 1.440E-01	 2.761E-01	 2.392E+00	 2.084E-01	 8.140E-02	 2.025E-01	 2.641E-02	-7.641E-02	-5.143E+00
  11.000	 1.447E+01	 3.064E+00	 3.441E+00	 2.051E+00	 4.366E+02	 2.744E+00	 2.514E-01	-6.026E+00	-6.344E+00	 7.508E+00	 3.616E+01	 8.661E-02	 2.123E-01	 2.340E+00	 2.084E-01	 8.203E-02	 1.981E-01	 2.603E-02	-7.578E-02	-5.105E+00
  11.008	 1.449E+01	 3.233E+00	 3.333E+00	 1.405E+00	 4.366E+02	 2.746E+00	 1.665E-01	-1.501E+01	-6.391E+00	 7.242E+00	 3.619E+01	 1.902E-02	 1.459E-01	 2.287E+00	 2.085E-01	 8.729E-02	 1.972E-01	 2.595E-02	-7.528E-02	-5.096E+00
  11.016	 1.451E+01	 3.372E+00	 3.183E+00	 1.149E+00	 4.366E+02	 2.747E+00	 2.720E-02	-1.858E+01	-6.438E+00	 6.977E+00	 3.622E+01	-5.615E-02	 1.036E-01	 2.324E+00	 2.086E-01	 8.988E-02	 1.963E-01	 2.587E-02	-7.507E-02	-5.121E+00
  11.024	 1.454E+01	 3.465E+00	 3.008E+00	 1.637E+00	 4.366E+02	 2.747E+00	-1.259E-01	-2.085E+01	-6.485E+00	 6.713E+00	 3.626E+01	-1.270E-01	 8.494E-02	 2.389E+00	 2.085E-01	 9.053E-02	 1.954E-01	 2.579E-02	-7.521E-02	-5.148E+00
  11.032	 1.456E+01	 3.505E+00	 2.827E+00	 2.330E+00	 4.366E+02	 2.745E+00	-3.226E-01	-2.863E+01	-6.531E+00	 6.449E+00	 3.630E+01	-1.852E-01	 8.547E-02	 2.392E+00	 2.085E-01	 9.003E-02	 1.945E-01	 2.571E-02	-7.577E-02	-5.154E+00
  11.040	 1.459E+01	 3.488E+00	 2.473E+00	 2.864E+00	 4.366E+02	 2.741E+00	-5.591E-01	-2.723E+01	-6.576E+00	 6.185E+00	 3.632E+01	-2.256E-01	 1.057E-01	 2.335E+00	 2.084E-01	 8.780E-02	 1.936E-01	 2.563E-02	-7.686E-02	-5.147E+00
  11.048	 1.461E+01	 3.416E+00	 1.871E+00	 3.113E+00	 4.366E+02	 2.736E+00	-7.205E-01	-1.210E+01	-6.620E+00	 5.921E+00	 3.633E+01	-2.409E-01	 1.443E-01	 2.266E+00	 2.085E-01	 8.743E-02	 1.926E-01	 2.555E-02	-7.843E-02	-5.135E+00
  11.056	 1.460E+01	 3.295E+00	 1.265E+00	 3.275E+00	 4.366E+02	 2.730E+00	-7.487E-01	 4.971E+00	-6.664E+00	 6.018E+00	 3.633E+01	-2.274E-01	 2.035E-01	 2.270E+00	 2.086E-01	 8.749E-02	 1.931E-01	 2.560E-02	-8.020E-02	-5.130E+00
  11.064	 1.457E+01	 3.137E+00	 1.224E+00	 3.402E+00	 4.365E+02	 2.724E+00	-6.496E-01	 1.778E+01	-6.708E+00	 6.236E+00	 3.630E+01	-1.834E-01	 2.769E-01	 2.349E+00	 2.086E-01	 8.611E-02	 1.941E-01	 2.568E-02	-8.187E-02	-5.129E+00
  11.072	 1.455E+01	 2.958E+00	 1.828E+00	 3.481E+00	 4.365E+02	 2.720E+00	-5.260E-01	 8.771E+00	-6.754E+00	 6.457E+00	 3.626E+01	-1.098E-01	 3.411E-01	 2.378E+00	 2.087E-01	 8.772E-02	 1.950E-01	 2.577E-02	-8.323E-02	-5.125E+00
  11.080	 1.452E+01	 2.763E+00	 2.500E+00	 3.506E+00	 4.365E+02	 2.716E+00	-5.410E-01	-1.099E+01	-6.800E+00	 6.678E+00	 3.621E+01	-2.478E-02	 3.826E-01	 2.345E+00	 2.086E-01	 8.899E-02	 1.960E-01	 2.586E-02	-8.446E-02	-5.136E+00
  11.088	 1.450E+01	 2.328E+00	 2.960E+00	 3.474E+00	 4.365E+02	 2.711E+00	-6.252E-01	-4.369E+00	-6.846E+00	 6.900E+00	 3.616E+01	 4.920E-02	 4.027E-01	 2.313E+00	 2.086E-01	 8.664E-02	 1.970E-01	 2.594E-02	-8.587E-02	-5.162E+00
  11.096	 1.447E+01	 1.690E+00	 3.160E+00	 3.388E+00	 4.365E+02	 2.706E+00	-5.577E-01	 2.126E+01	-6.891E+00	 7.122E+00	 3.613E+01	 1.019E-01	 4.075E-01	 2.305E+00	 2.087E-01	 8.476E-02	 1.979E-01	 2.603E-02	-8.731E-02	-5.166E+00
  11.104	 1.449E+01	 1.169E+00	 3.314E+00	 3.255E+00	 4.365E+02	 2.703E+00	-3.158E-01	 3.667E+01	-6.938E+00	 7.527E+00	 3.612E+01	 1.393E-01	 3.980E-01	 2.338E+00	 2.087E-01	 8.315E-02	 1.972E-01	 2.596E-02	-8.832E-02	-5.152E+00
  11.112	 1.455E+01	 1.350E+00	 3.429E+00	 3.089E+00	 4.365E+02	 2.701E+00	-1.486E-02	 3.587E+01	-6.987E+00	 8.114E+00	 3.611E+01	 1.611E-01	 3.711E-01	 2.372E+00	 2.088E-01	 8.223E-02	 1.947E-01	 2.575E-02	-8.866E-02	-5.138E+00
  11.120	 1.461E+01	 2.019E+00	 3.494E+00	 2.909E+00	 4.365E+02	 2.702E+00	 2.231E-01	 2.333E+01	-7.038E+00	 8.698E+00	 3.612E+01	 1.626E-01	 3.269E-01	 2.367E+00	 2.089E-01	 8.289E-02	 1.923E-01	 2.554E-02	-8.835E-02	-5.138E+00
  11.128	 1.468E+01	 2.652E+00	 3.503E+00	 2.673E+00	 4.365E+02	 2.705E+00	 3.935E-01	 2.343E+01	-7.091E+00	 9.278E+00	 3.614E+01	 1.431E-01	 2.739E-01	 2.364E+00	 2.088E-01	 8.213E-02	 1.900E-01	 2.533E-02	-8.759E-02	-5.159E+00
  11.136	 1.475E+01	 3.030E+00	 3.456E+00	 2.166E+00	 4.365E+02	 2.709E+00	 6.515E-01	 4.182E+01	-7.145E+00	 9.855E+00	 3.617E+01	 1.061E-01	 2.194E-01	 2.378E+00	 2.089E-01	 8.124E-02	 1.876E-01	 2.512E-02	-8.634E-02	-5.164E+00
  11.144	 1.482E+01	 3.204E+00	 3.356E+00	 1.513E+00	 4.365E+02	 2.715E+00	 1.007E+00	 4.218E+01	-7.201E+00	 1.043E+01	 3.620E+01	 5.170E-02	 1.676E-01	 2.367E+00	 2.089E-01	 8.341E-02	 1.853E-01	 2.491E-02	-8.431E-02	-5.137E+00
  11.152	 1.487E+01	 3.349E+00	 3.212E+00	 1.132E+00	 4.365E+02	 2.724E+00	 1.277E+00	 2.491E+01	-7.260E+00	 1.091E+01	 3.623E+01	-1.595E-02	 1.305E-01	 2.360E+00	 2.088E-01	 8.467E-02	 1.838E-01	 2.477E-02	-8.152E-02	-5.130E+00
  11.160	 1.486E+01	 3.452E+00	 3.041E+00	 1.513E+00	 4.365E+02	 2.735E+00	 1.421E+00	 1.227E+01	-7.320E+00	 1.109E+01	 3.627E+01	-8.165E-02	 1.117E-01	 2.363E+00	 2.090E-01	 8.446E-02	 1.843E-01	 2.482E-02	-7.827E-02	-5.144E+00
  11.168	 1.485E+01	 3.502E+00	 2.860E+00	 2.208E+00	 4.365E+02	 2.747E+00	 1.497E+00	 8.932E+00	-7.381E+00	 1.127E+01	 3.630E+01	-1.401E-01	 1.105E-01	 2.365E+00	 2.089E-01	 8.390E-02	 1.848E-01	 2.487E-02	-7.479E-02	-5.165E+00
  11.176	 1.483E+01	 3.496E+00	 2.560E+00	 2.786E+00	 4.365E+02	 2.759E+00	 1.604E+00	 2.000E+01	-7.443E+00	 1.145E+01	 3.631E+01	-1.855E-01	 1.306E-01	 2.367E+00	 2.088E-01	 8.224E-02	 1.854E-01	 2.492E-02	-7.111E-02	-5.171E+00
  11.184	 1.482E+01	 3.434E+00	 1.991E+00	 3.080E+00	 4.365E+02	 2.773E+00	 1.831E+00	 3.511E+01	-7.507E+00	 1.164E+01	 3.632E+01	-2.092E-01	 1.695E-01	 2.356E+00	 2.089E-01	 8.162E-02	 1.859E-01	 2.496E-02	-6.702E-02	-5.143E+00
  11.192	 1.481E+01	 3.321E+00	 1.352E+00	 3.247E+00	 4.365E+02	 2.789E+00	 2.110E+00	 3.120E+01	-7.573E+00	 1.183E+01	 3.630E+01	-2.106E-01	 2.189E-01	 2.330E+00	 2.088E-01	 8.369E-02	 1.864E-01	 2.501E-02	-6.229E-02	-5.106E+00
  11.200	 1.480E+01	 3.168E+00	 1.165E+00	 3.382E+00	 4.365E+02	 2.807E+00	 2.300E+00	 1.497E+01	-7.641E+00	 1.202E+01	 3.628E+01	-1.911E-01	 2.743E-01	 2.336E+00	 2.089E-01	 8.591E-02	 1.869E-01	 2.506E-02	-5.700E-02	-5.104E+00
  11.208	 1.482E+01	 2.992E+00	 1.698E+00	 3.471E+00	 4.365E+02	 2.825E+00	 2.332E+00	-8.498E+00	-7.710E+00	 1.205E+01	 3.625E+01	-1.514E-01	 3.261E-01	 2.355E+00	 2.090E-01	 8.828E-02	 1.860E-01	 2.498E-02	-5.146E-02	-5.120E+00
  11.216	 1.484E+01	 2.809E+00	 2.388E+00	 3.506E+00	 4.365E+02	 2.843E+00	 2.165E+00	-3.143E+01	-7.779E+00	 1.207E+01	 3.622E+01	-9.629E-02	 3.707E-01	 2.379E+00	 2.089E-01	 8.918E-02	 1.851E-01	 2.490E-02	-4.611E-02	-5.143E+00
  11.224	 1.487E+01	 2.426E+00	 2.898E+00	 3.484E+00	 4.365E+02	 2.860E+00	 1.890E+00	-3.306E+01	-7.848E+00	 1.210E+01	 3.619E+01	-2.888E-02	 4.042E-01	 2.404E+00	 2.089E-01	 8.737E-02	 1.842E-01	 2.482E-02	-4.135E-02	-5.158E+00
  11.232	 1.489E+01	 1.808E+00	 3.129E+00	 3.407E+00	 4.366E+02	 2.874E+00	 1.690E+00	-1.712E+01	-7.916E+00	 1.212E+01	 3.617E+01	 4.175E-02	 4.195E-01	 2.407E+00	 2.089E-01	 8.622E-02	 1.834E-01	 2.474E-02	-3.716E-02	-5.147E+00
  11.240	 1.491E+01	 1.224E+00	 3.288E+00	 3.282E+00	 4.366E+02	 2.887E+00	 1.590E+00	-1.021E+01	-7.983E+00	 1.214E+01	 3.616E+01	 1.092E-01	 4.105E-01	 2.395E+00	 2.089E-01	 8.675E-02	 1.825E-01	 2.466E-02	-3.330E-02	-5.116E+00
  11.248	 1.493E+01	 1.259E+00	 3.411E+00	 3.120E+00	 4.366E+02	 2.899E+00	 1.495E+00	-1.652E+01	-8.051E+00	 1.217E+01	 3.615E+01	 1.634E-01	 3.847E-01	 2.414E+00	 2.090E-01	 8.798E-02	 1.816E-01	 2.457E-02	-2.964E-02	-5.107E+00
  11.256	 1.495E+01	 1.892E+00	 3.486E+00	 2.941E+00	 4.366E+02	 2.910E+00	 1.276E+00	-4.092E+01	-8.119E+00	 1.224E+01	 3.615E+01	 1.878E-01	 3.491E-01	 2.436E+00	 2.091E-01	 9.016E-02	 1.810E-01	 2.452E-02	-2.635E-02	-5.116E+00
  11.264	 1.496E+01	 2.554E+00	 3.505E+00	 2.734E+00	 4.367E+02	 2.919E+00	 8.421E-01	-6.461E+01	-8.186E+00	 1.233E+01	 3.616E+01	 1.781E-01	 3.055E-01	 2.464E+00	 2.089E-01	 9.021E-02	 1.806E-01	 2.448E-02	-2.387E-02	-5.139E+00
  11.272	 1.497E+01	 2.987E+00	 3.467E+00	 2.272E+00	 4.367E+02	 2.924E+00	 3.153E-01	-6.155E+01	-8.250E+00	 1.242E+01	 3.619E+01	 1.417E-01	 2.511E-01	 2.494E+00	 2.091E-01	 8.837E-02	 1.801E-01	 2.443E-02	-2.260E-02	-5.163E+00
  11.280	 1.499E+01	 3.176E+00	 3.375E+00	 1.625E+00	 4.368E+02	 2.924E+00	-1.111E-01	-4.612E+01	-8.311E+00	 1.250E+01	 3.621E+01	 7.916E-02	 1.892E-01	 2.504E+00	 2.090E-01	 8.810E-02	 1.796E-01	 2.438E-02	-2.245E-02	-5.158E+00
  11.288	 1.500E+01	 3.326E+00	 3.239E+00	 1.147E+00	 4.368E+02	 2.922E+00	-4.458E-01	-3.798E+01	-8.371E+00	 1.258E+01	 3.625E+01	-3.487E-03	 1.366E-01	 2.505E+00	 2.089E-01	 8.811E-02	 1.791E-01	 2.434E-02	-2.319E-02	-5.148E+00
  11.296	 1.501E+01	 3.437E+00	 3.070E+00	 1.403E+00	 4.369E+02	 2.917E+00	-7.362E-01	-3.579E+01	-8.429E+00	 1.266E+01	 3.630E+01	-8.758E-02	 1.061E-01	 2.511E+00	 2.091E-01	 8.796E-02	 1.786E-01	 2.429E-02	-2.464E-02	-5.149E+00
  11.304	 1.506E+01	 3.496E+00	 2.890E+00	 2.087E+00	 4.369E+02	 2.910E+00	-1.055E+00	-4.486E+01	-8.486E+00	 1.265E+01	 3.634E+01	-1.631E-01	 9.795E-02	 2.523E+00	 2.089E-01	 8.742E-02	 1.769E-01	 2.413E-02	-2.681E-02	-5.146E+00
  11.312	 1.514E+01	 3.500E+00	 2.633E+00	 2.702E+00	 4.370E+02	 2.900E+00	-1.445E+00	-5.053E+01	-8.541E+00	 1.254E+01	 3.639E+01	-2.214E-01	 1.153E-01	 2.554E+00	 2.089E-01	 8.513E-02	 1.741E-01	 2.386E-02	-2.983E-02	-5.156E+00
  11.320	 1.522E+01	 3.446E+00	 2.101E+00	 3.050E+00	 4.371E+02	 2.887E+00	-1.821E+00	-4.120E+01	-8.594E+00	 1.244E+01	 3.642E+01	-2.536E-01	 1.539E-01	 2.583E+00	 2.089E-01	 8.373E-02	 1.712E-01	 2.360E-02	-3.379E-02	-5.176E+00
  11.328	 1.530E+01	 3.341E+00	 1.449E+00	 3.221E+00	 4.372E+02	 2.871E+00	-2.099E+00	-2.801E+01	-8.644E+00	 1.233E+01	 3.643E+01	-2.534E-01	 2.070E-01	 2.580E+00	 2.087E-01	 8.377E-02	 1.685E-01	 2.334E-02	-3.851E-02	-5.184E+00
  11.336	 1.537E+01	 3.194E+00	 1.134E+00	 3.362E+00	 4.372E+02	 2.854E+00	-2.255E+00	-1.051E+01	-8.693E+00	 1.222E+01	 3.642E+01	-2.222E-01	 2.711E-01	 2.563E+00	 2.087E-01	 8.283E-02	 1.658E-01	 2.308E-02	-4.374E-02	-5.182E+00
  11.344	 1.545E+01	 3.020E+00	 1.580E+00	 3.459E+00	 4.373E+02	 2.836E+00	-2.292E+00	-3.026E+00	-8.742E+00	 1.212E+01	 3.640E+01	-1.611E-01	 3.341E-01	 2.552E+00	 2.087E-01	 8.289E-02	 1.631E-01	 2.283E-02	-4.915E-02	-5.165E+00
  11.352	 1.552E+01	 2.840E+00	 2.278E+00	 3.503E+00	 4.374E+02	 2.817E+00	-2.376E+00	-1.888E+01	-8.790E+00	 1.205E+01	 3.637E+01	-8.086E-02	 3.861E-01	 2.558E+00	 2.084E-01	 8.261E-02	 1.608E-01	 2.260E-02	-5.468E-02	-5.158E+00
  11.360	 1.557E+01	 2.508E+00	 2.832E+00	 3.491E+00	 4.374E+02	 2.797E+00	-2.543E+00	-1.710E+01	-8.837E+00	 1.207E+01	 3.635E+01	 4.317E-03	 4.247E-01	 2.583E+00	 2.084E-01	 7.913E-02	 1.594E-01	 2.246E-02	-6.055E-02	-5.180E+00
  11.368	 1.561E+01	 1.916E+00	 3.100E+00	 3.422E+00	 4.375E+02	 2.777E+00	-2.561E+00	 1.408E+01	-8.884E+00	 1.210E+01	 3.632E+01	 7.744E-02	 4.457E-01	 2.591E+00	 2.083E-01	 7.711E-02	 1.580E-01	 2.232E-02	-6.666E-02	-5.197E+00
  11.376	 1.565E+01	 1.292E+00	 3.264E+00	 3.304E+00	 4.376E+02	 2.757E+00	-2.353E+00	 3.342E+01	-8.931E+00	 1.212E+01	 3.630E+01	 1.302E-01	 4.432E-01	 2.574E+00	 2.080E-01	 7.913E-02	 1.566E-01	 2.218E-02	-7.249E-02	-5.183E+00
  11.384	 1.570E+01	 1.194E+00	 3.394E+00	 3.147E+00	 4.376E+02	 2.739E+00	-2.083E+00	 3.211E+01	-8.979E+00	 1.215E+01	 3.630E+01	 1.637E-01	 4.191E-01	 2.573E+00	 2.080E-01	 8.008E-02	 1.552E-01	 2.205E-02	-7.771E-02	-5.172E+00
  11.392	 1.574E+01	 1.778E+00	 3.477E+00	 2.969E+00	 4.377E+02	 2.724E+00	-1.850E+00	 2.491E+01	-9.028E+00	 1.217E+01	 3.630E+01	 1.705E-01	 3.771E-01	 2.561E+00	 2.078E-01	 8.037E-02	 1.538E-01	 2.191E-02	-8.232E-02	-5.167E+00
  11.400	 1.579E+01	 2.461E+00	 3.506E+00	 2.778E+00	 4.378E+02	 2.710E+00	-1.675E+00	 2.082E+01	-9.079E+00	 1.220E+01	 3.633E+01	 1.532E-01	 3.243E-01	 2.547E+00	 2.076E-01	 7.978E-02	 1.524E-01	 2.177E-02	-8.647E-02	-5.172E+00
  11.408	 1.579E+01	 2.940E+00	 3.477E+00	 2.358E+00	 4.378E+02	 2.697E+00	-1.471E+00	 3.331E+01	-9.130E+00	 1.232E+01	 3.637E+01	 1.184E-01	 2.666E-01	 2.553E+00	 2.076E-01	 7.867E-02	 1.521E-01	 2.174E-02	-9.018E-02	-5.187E+00
  11.416	 1.580E+01	 3.149E+00	 3.393E+00	 1.723E+00	 4.379E+02	 2.686E+00	-1.125E+00	 5.082E+01	-9.182E+00	 1.243E+01	 3.642E+01	 6.642E-02	 2.088E-01	 2.570E+00	 2.075E-01	 7.953E-02	 1.518E-01	 2.170E-02	-9.323E-02	-5.189E+00
  11.424	 1.581E+01	 3.306E+00	 3.262E+00	 1.178E+00	 4.380E+02	 2.679E+00	-7.052E-01	 5.250E+01	-9.236E+00	 1.255E+01	 3.646E+01	-8.994E-04	 1.638E-01	 2.594E+00	 2.073E-01	 8.022E-02	 1.515E-01	 2.166E-02	-9.533E-02	-5.185E+00
  11.432	 1.582E+01	 3.424E+00	 3.096E+00	 1.320E+00	 4.381E+02	 2.675E+00	-2.866E-01	 5.224E+01	-9.293E+00	 1.268E+01	 3.650E+01	-7.157E-02	 1.386E-01	 2.621E+00	 2.072E-01	 7.898E-02	 1.512E-01	 2.162E-02	-9.644E-02	-5.184E+00
  11.440	 1.583E+01	 3.491E+00	 2.915E+00	 1.986E+00	 4.381E+02	 2.674E+00	 9.488E-02	 3.975E+01	-9.351E+00	 1.280E+01	 3.653E+01	-1.379E-01	 1.231E-01	 2.614E+00	 2.071E-01	 8.029E-02	 1.509E-01	 2.159E-02	-9.658E-02	-5.172E+00
  11.448	 1.584E+01	 3.503E+00	 2.685E+00	 2.629E+00	 4.382E+02	 2.676E+00	 3.283E-01	 2.049E+01	-9.411E+00	 1.292E+01	 3.657E+01	-1.983E-01	 1.265E-01	 2.619E+00	 2.070E-01	 8.132E-02	 1.506E-01	 2.155E-02	-9.600E-02	-5.182E+00
  11.456	 1.590E+01	 3.457E+00	 2.184E+00	 3.021E+00	 4.383E+02	 2.680E+00	 4.961E-01	 2.745E+01	-9.471E+00	 1.328E+01	 3.661E+01	-2.433E-01	 1.590E-01	 2.658E+00	 2.068E-01	 7.981E-02	 1.490E-01	 2.139E-02	-9.501E-02	-5.213E+00
  11.464	 1.597E+01	 3.358E+00	 1.527E+00	 3.199E+00	 4.384E+02	 2.685E+00	 8.150E-01	 5.198E+01	-9.532E+00	 1.371E+01	 3.663E+01	-2.568E-01	 2.140E-01	 2.678E+00	 2.067E-01	 7.931E-02	 1.471E-01	 2.120E-02	-9.343E-02	-5.220E+00
  11.472	 1.604E+01	 3.215E+00	 1.127E+00	 3.345E+00	 4.385E+02	 2.693E+00	 1.282E+00	 6.101E+01	-9.595E+00	 1.415E+01	 3.663E+01	-2.336E-01	 2.745E-01	 2.662E+00	 2.064E-01	 7.989E-02	 1.452E-01	 2.101E-02	-9.088E-02	-5.195E+00
  11.480	 1.612E+01	 3.043E+00	 1.495E+00	 3.449E+00	 4.386E+02	 2.705E+00	 1.732E+00	 4.750E+01	-9.661E+00	 1.458E+01	 3.662E+01	-1.801E-01	 3.311E-01	 2.628E+00	 2.063E-01	 8.137E-02	 1.433E-01	 2.082E-02	-8.720E-02	-5.159E+00
  11.488	 1.620E+01	 2.861E+00	 2.195E+00	 3.501E+00	 4.387E+02	 2.720E+00	 1.978E+00	 1.285E+01	-9.728E+00	 1.501E+01	 3.661E+01	-1.091E-01	 3.860E-01	 2.605E+00	 2.061E-01	 8.473E-02	 1.415E-01	 2.063E-02	-8.270E-02	-5.144E+00
  11.496	 1.627E+01	 2.564E+00	 2.779E+00	 3.495E+00	 4.388E+02	 2.736E+00	 1.973E+00	-9.674E+00	-9.795E+00	 1.543E+01	 3.659E+01	-3.442E-02	 4.386E-01	 2.633E+00	 2.059E-01	 8.623E-02	 1.396E-01	 2.044E-02	-7.797E-02	-5.177E+00
  11.504	 1.632E+01	 1.994E+00	 3.079E+00	 3.432E+00	 4.389E+02	 2.752E+00	 1.923E+00	 2.600E+00	-9.861E+00	 1.557E+01	 3.656E+01	 3.508E-02	 4.713E-01	 2.666E+00	 2.057E-01	 8.550E-02	 1.383E-01	 2.030E-02	-7.338E-02	-5.216E+00
  11.512	 1.635E+01	 1.351E+00	 3.247E+00	 3.319E+00	 4.389E+02	 2.767E+00	 2.042E+00	 2.560E+01	-9.927E+00	 1.542E+01	 3.654E+01	 9.762E-02	 4.687E-01	 2.643E+00	 2.055E-01	 8.539E-02	 1.374E-01	 2.021E-02	-6.869E-02	-5.205E+00
  11.520	 1.637E+01	 1.163E+00	 3.382E+00	 3.165E+00	 4.390E+02	 2.785E+00	 2.284E+00	 3.137E+01	-9.993E+00	 1.528E+01	 3.654E+01	 1.505E-01	 4.365E-01	 2.606E+00	 2.053E-01	 8.480E-02	 1.365E-01	 2.011E-02	-6.352E-02	-5.167E+00
  11.528	 1.640E+01	 1.703E+00	 3.471E+00	 2.988E+00	 4.391E+02	 2.804E+00	 2.489E+00	 1.466E+01	-1.006E+01	 1.514E+01	 3.654E+01	 1.801E-01	 3.916E-01	 2.585E+00	 2.052E-01	 8.608E-02	 1.356E-01	 2.002E-02	-5.780E-02	-5.137E+00
  11.536	 1.643E+01	 2.397E+00	 3.505E+00	 2.804E+00	 4.392E+02	 2.824E+00	 2.464E+00	-2.074E+01	-1.013E+01	 1.499E+01	 3.656E+01	 1.763E-01	 3.434E-01	 2.609E+00	 2.049E-01	 8.818E-02	 1.348E-01	 1.993E-02	-5.187E-02	-5.146E+00
  11.544	 1.646E+01	 2.905E+00	 3.481E+00	 2.414E+00	 4.393E+02	 2.843E+00	 2.214E+00	-3.476E+01	-1.019E+01	 1.485E+01	 3.659E+01	 1.442E-01	 2.891E-01	 2.663E+00	 2.048E-01	 8.702E-02	 1.339E-01	 1.983E-02	-4.633E-02	-5.193E+00
  11.552	 1.649E+01	 3.133E+00	 3.402E+00	 1.790E+00	 4.393E+02	 2.859E+00	 2.031E+00	-7.474E+00	-1.026E+01	 1.461E+01	 3.664E+01	 8.947E-02	 2.223E-01	 2.678E+00	 2.046E-01	 8.499E-02	 1.328E-01	 1.971E-02	-4.137E-02	-5.215E+00
  11.560	 1.656E+01	 3.293E+00	 3.275E+00	 1.210E+00	 4.394E+02	 2.876E+00	 2.089E+00	 1.843E+01	-1.032E+01	 1.409E+01	 3.669E+01	 1.534E-02	 1.594E-01	 2.641E+00	 2.046E-01	 8.505E-02	 1.308E-01	 1.951E-02	-3.651E-02	-5.183E+00
  11.568	 1.663E+01	 3.415E+00	 3.111E+00	 1.276E+00	 4.395E+02	 2.893E+00	 2.263E+00	 2.133E+01	-1.039E+01	 1.358E+01	 3.674E+01	-6.786E-02	 1.263E-01	 2.641E+00	 2.044E-01	 8.425E-02	 1.289E-01	 1.931E-02	-3.132E-02	-5.151E+00
  11.576	 1.670E+01	 3.487E+00	 2.931E+00	 1.924E+00	 4.397E+02	 2.912E+00	 2.359E+00	-1.744E+00	-1.045E+01	 1.307E+01	 3.678E+01	-1.452E-01	 1.181E-01	 2.690E+00	 2.042E-01	 8.348E-02	 1.271E-01	 1.911E-02	-2.578E-02	-5.138E+00
  11.584	 1.677E+01	 3.503E+00	 2.716E+00	 2.583E+00	 4.398E+02	 2.930E+00	 2.212E+00	-3.331E+01	-1.051E+01	 1.257E+01	 3.683E+01	-2.086E-01	 1.280E-01	 2.742E+00	 2.040E-01	 8.329E-02	 1.252E-01	 1.892E-02	-2.033E-02	-5.161E+00
  11.592	 1.685E+01	 3.462E+00	 2.236E+00	 3.002E+00	 4.398E+02	 2.947E+00	 1.894E+00	-3.933E+01	-1.058E+01	 1.207E+01	 3.688E+01	-2.475E-01	 1.567E-01	 2.733E+00	 2.037E-01	 8.448E-02	 1.234E-01	 1.873E-02	-1.550E-02	-5.202E+00
  11.600	 1.692E+01	 3.367E+00	 1.581E+00	 3.186E+00	 4.400E+02	 2.961E+00	 1.647E+00	-2.055E+01	-1.064E+01	 1.158E+01	 3.692E+01	-2.521E-01	 2.079E-01	 2.668E+00	 2.037E-01	 8.723E-02	 1.216E-01	 1.854E-02	-1.138E-02	-5.207E+00
  11.608	 1.693E+01	 3.226E+00	 1.135E+00	 3.335E+00	 4.401E+02	 2.973E+00	 1.570E+00	 4.234E-01	-1.069E+01	 1.161E+01	 3.692E+01	-2.248E-01	 2.800E-01	 2.641E+00	 2.035E-01	 8.593E-02	 1.213E-01	 1.849E-02	-7.605E-03	-5.175E+00
  11.616	 1.694E+01	 3.056E+00	 1.452E+00	 3.443E+00	 4.402E+02	 2.986E+00	 1.632E+00	 1.183E+01	-1.075E+01	 1.164E+01	 3.690E+01	-1.735E-01	 3.577E-01	 2.696E+00	 2.033E-01	 8.186E-02	 1.209E-01	 1.845E-02	-3.814E-03	-5.148E+00
  11.624	 1.695E+01	 2.874E+00	 2.148E+00	 3.498E+00	 4.403E+02	 2.999E+00	 1.649E+00	-1.360E+01	-1.081E+01	 1.168E+01	 3.687E+01	-9.924E-02	 4.197E-01	 2.744E+00	 2.030E-01	 8.158E-02	 1.205E-01	 1.840E-02	 1.236E-04	-5.143E+00
  11.632	 1.696E+01	 2.594E+00	 2.749E+00	 3.496E+00	 4.404E+02	 3.012E+00	 1.396E+00	-4.716E+01	-1.087E+01	 1.171E+01	 3.684E+01	-1.554E-02	 4.557E-01	 2.725E+00	 2.026E-01	 8.283E-02	 1.201E-01	 1.835E-02	 2.436E-04	-5.176E+00
  11.640	 1.697E+01	 2.036E+00	 3.068E+00	 3.437E+00	 4.405E+02	 3.021E+00	 1.010E+00	-4.103E+01	-1.092E+01	 1.175E+01	 3.680E+01	 5.782E-02	 4.651E-01	 2.655E+00	 2.024E-01	 8.297E-02	 1.197E-01	 1.830E-02	 1.762E-04	-5.213E+00
  11.648	 1.698E+01	 1.384E+00	 3.238E+00	 3.326E+00	 4.406E+02	 3.028E+00	 8.087E-01	-8.083E+00	-1.098E+01	 1.178E+01	 3.677E+01	 1.096E-01	 4.513E-01	 2.594E+00	 2.022E-01	 8.318E-02	 1.194E-01	 1.825E-02	 1.412E-04	-5.202E+00
  11.656	 1.695E+01	 1.150E+00	 3.376E+00	 3.175E+00	 4.406E+02	 3.035E+00	 8.493E-01	 1.478E+01	-1.103E+01	 1.151E+01	 3.677E+01	 1.422E-01	 4.156E-01	 2.598E+00	 2.020E-01	 8.141E-02	 1.200E-01	 1.830E-02	 1.482E-04	-5.163E+00
  11.664	 1.690E+01	 1.667E+00	 3.468E+00	 2.998E+00	 4.407E+02	 3.042E+00	 9.851E-01	 1.226E+01	-1.108E+01	 1.115E+01	 3.679E+01	 1.515E-01	 3.694E-01	 2.648E+00	 2.018E-01	 7.988E-02	 1.209E-01	 1.839E-02	 1.719E-04	-5.135E+00
  11.672	 1.685E+01	 2.366E+00	 3.505E+00	 2.816E+00	 4.408E+02	 3.050E+00	 9.562E-01	-2.067E+01	-1.114E+01	 1.079E+01	 3.683E+01	 1.412E-01	 3.213E-01	 2.663E+00	 2.014E-01	 7.962E-02	 1.218E-01	 1.848E-02	 1.668E-04	-5.142E+00
  11.680	 1.681E+01	 2.889E+00	 3.484E+00	 2.438E+00	 4.409E+02	 3.057E+00	 6.913E-01	-3.991E+01	-1.119E+01	 1.042E+01	 3.688E+01	 1.190E-01	 2.710E-01	 2.636E+00	 2.013E-01	 7.876E-02	 1.228E-01	 1.856E-02	 1.206E-04	-5.188E+00
  11.688	 1.676E+01	 3.126E+00	 3.407E+00	 1.816E+00	 4.410E+02	 3.061E+00	 4.351E-01	-1.974E+01	-1.124E+01	 1.005E+01	 3.694E+01	 8.283E-02	 2.215E-01	 2.606E+00	 2.011E-01	 7.666E-02	 1.237E-01	 1.865E-02	 7.583E-05	-5.221E+00
  11.696	 1.672E+01	 3.287E+00	 3.281E+00	 1.221E+00	 4.411E+02	 3.065E+00	 3.983E-01	 9.154E+00	-1.128E+01	 9.671E+00	 3.700E+01	 2.346E-02	 1.844E-01	 2.613E+00	 2.009E-01	 7.331E-02	 1.247E-01	 1.874E-02	 6.948E-05	-5.208E+00
  11.704	 1.671E+01	 3.412E+00	 3.119E+00	 1.256E+00	 4.412E+02	 3.068E+00	 5.438E-01	 2.548E+01	-1.133E+01	 9.358E+00	 3.703E+01	-5.308E-02	 1.682E-01	 2.671E+00	 2.008E-01	 6.919E-02	 1.249E-01	 1.875E-02	 9.508E-05	-5.179E+00
  11.712	 1.674E+01	 3.487E+00	 2.938E+00	 1.901E+00	 4.413E+02	 3.073E+00	 7.382E-01	 1.608E+01	-1.138E+01	 9.109E+00	 3.705E+01	-1.309E-01	 1.630E-01	 2.712E+00	 2.005E-01	 6.802E-02	 1.243E-01	 1.868E-02	 1.288E-04	-5.155E+00
  11.720	 1.676E+01	 3.505E+00	 2.725E+00	 2.567E+00	 4.413E+02	 3.080E+00	 7.571E-01	-1.019E+01	-1.143E+01	 8.863E+00	 3.708E+01	-1.955E-01	 1.657E-01	 2.692E+00	 2.003E-01	 6.882E-02	 1.238E-01	 1.862E-02	 1.323E-04	-5.165E+00
  11.728	 1.679E+01	 3.465E+00	 2.248E+00	 2.995E+00	 4.414E+02	 3.085E+00	 6.395E-01	-1.319E+01	-1.147E+01	 8.616E+00	 3.711E+01	-2.331E-01	 1.852E-01	 2.650E+00	 2.001E-01	 6.841E-02	 1.232E-01	 1.855E-02	 1.117E-04	-5.197E+00
  11.736	 1.682E+01	 3.371E+00	 1.588E+00	 3.182E+00	 4.415E+02	 3.090E+00	 5.972E-01	 2.819E+00	-1.152E+01	 8.369E+00	 3.712E+01	-2.380E-01	 2.232E-01	 2.646E+00	 2.000E-01	 6.649E-02	 1.226E-01	 1.848E-02	 1.044E-04	-5.206E+00
  11.744	 1.685E+01	 3.231E+00	 1.128E+00	 3.334E+00	 4.416E+02	 3.095E+00	 6.676E-01	 1.278E+01	-1.157E+01	 8.123E+00	 3.711E+01	-2.177E-01	 2.700E-01	 2.673E+00	 1.997E-01	 6.302E-02	 1.221E-01	 1.842E-02	 1.166E-04	-5.192E+00
  11.752	 1.687E+01	 3.059E+00	 1.439E+00	 3.444E+00	 4.417E+02	 3.101E+00	 7.873E-01	 1.605E+01	-1.161E+01	 7.992E+00	 3.710E+01	-1.813E-01	 3.165E-01	 2.705E+00	 1.995E-01	 6.065E-02	 1.217E-01	 1.837E-02	 1.374E-04	-5.179E+00
  11.760	 1.685E+01	 2.876E+00	 2.141E+00	 3.501E+00	 4.418E+02	 3.107E+00	 8.551E-01	-1.166E+00	-1.166E+01	 8.205E+00	 3.708E+01	-1.296E-01	 3.543E-01	 2.695E+00	 1.992E-01	 6.224E-02	 1.218E-01	 1.838E-02	 1.492E-04	-5.174E+00
  11.768	 1.683E+01	 2.594E+00	 2.746E+00	 3.500E+00	 4.419E+02	 3.114E+00	 7.937E-01	-9.955E+00	-1.171E+01	 8.418E+00	 3.707E+01	-6.705E-02	 3.790E-01	 2.661E+00	 1.989E-01	 6.240E-02	 1.220E-01	 1.838E-02	 1.386E-04	-5.187E+00
  11.776	 1.681E+01	 2.031E+00	 3.067E+00	 3.441E+00	 4.420E+02	 3.120E+00	 7.915E-01	 1.373E+01	-1.175E+01	 8.631E+00	 3.707E+01	-1.841E-03	 3.876E-01	 2.635E+00	 1.987E-01	 5.900E-02	 1.222E-01	 1.839E-02	 1.381E-04	-5.185E+00
  11.784	 1.679E+01	 1.374E+00	 3.238E+00	 3.329E+00	 4.421E+02	 3.127E+00	 9.867E-01	 2.876E+01	-1.180E+01	 8.844E+00	 3.709E+01	 6.244E-02	 3.870E-01	 2.625E+00	 1.985E-01	 5.835E-02	 1.224E-01	 1.840E-02	 1.723E-04	-5.152E+00
  11.792	 1.677E+01	 1.143E+00	 3.377E+00	 3.176E+00	 4.422E+02	 3.136E+00	 1.133E+00	 3.023E+00	-1.184E+01	 9.059E+00	 3.711E+01	 1.238E-01	 3.815E-01	 2.621E+00	 1.982E-01	 6.086E-02	 1.225E-01	 1.841E-02	 1.978E-04	-5.144E+00
  11.800	 1.675E+01	 1.671E+00	 3.470E+00	 2.997E+00	 4.423E+02	 3.145E+00	 1.035E+00	-2.646E+01	-1.189E+01	 9.274E+00	 3.713E+01	 1.668E-01	 3.717E-01	 2.633E+00	 1.981E-01	 6.314E-02	 1.227E-01	 1.841E-02	 1.806E-04	-5.175E+00
  11.808	 1.678E+01	 2.374E+00	 3.508E+00	 2.811E+00	 4.424E+02	 3.152E+00	 7.611E-01	-3.620E+01	-1.194E+01	 9.500E+00	 3.715E+01	 1.812E-01	 3.515E-01	 2.644E+00	 1.977E-01	 6.261E-02	 1.220E-01	 1.834E-02	 1.328E-04	-5.206E+00
  11.816	 1.680E+01	 2.895E+00	 3.487E+00	 2.423E+00	 4.425E+02	 3.157E+00	 5.406E-01	-1.452E+01	-1.198E+01	 9.724E+00	 3.717E+01	 1.666E-01	 3.182E-01	 2.639E+00	 1.975E-01	 5.797E-02	 1.213E-01	 1.826E-02	 9.441E-05	-5.208E+00
  11.824	 1.682E+01	 3.129E+00	 3.408E+00	 1.793E+00	 4.425E+02	 3.161E+00	 5.645E-01	 1.806E+01	-1.202E+01	 9.947E+00	 3.720E+01	 1.187E-01	 2.777E-01	 2.624E+00	 1.974E-01	 5.249E-02	 1.207E-01	 1.818E-02	 9.850E-05	-5.167E+00
  11.832	 1.684E+01	 3.292E+00	 3.280E+00	 1.200E+00	 4.426E+02	 3.167E+00	 7.415E-01	 1.992E+01	-1.206E+01	 1.017E+01	 3.723E+01	 3.902E-02	 2.395E-01	 2.618E+00	 1.972E-01	 5.132E-02	 1.200E-01	 1.810E-02	 1.295E-04	-5.131E+00
  11.840	 1.687E+01	 3.416E+00	 3.115E+00	 1.264E+00	 4.427E+02	 3.173E+00	 8.134E-01	-2.812E+00	-1.211E+01	 1.039E+01	 3.726E+01	-4.735E-02	 2.104E-01	 2.659E+00	 1.970E-01	 5.366E-02	 1.193E-01	 1.803E-02	 1.420E-04	-5.150E+00
  11.848	 1.689E+01	 3.490E+00	 2.931E+00	 1.922E+00	 4.429E+02	 3.179E+00	 6.894E-01	-2.837E+01	-1.215E+01	 1.061E+01	 3.729E+01	-1.206E-01	 1.890E-01	 2.722E+00	 1.969E-01	 5.664E-02	 1.187E-01	 1.795E-02	 1.203E-04	-5.188E+00
  11.856	 1.688E+01	 3.507E+00	 2.709E+00	 2.588E+00	 4.430E+02	 3.184E+00	 3.994E-01	-4.041E+01	-1.219E+01	 1.070E+01	 3.732E+01	-1.801E-01	 1.810E-01	 2.741E+00	 1.965E-01	 5.633E-02	 1.188E-01	 1.796E-02	 6.968E-05	-5.208E+00
  11.864	 1.686E+01	 3.465E+00	 2.217E+00	 3.006E+00	 4.431E+02	 3.185E+00	 1.093E-01	-2.730E+01	-1.223E+01	 1.074E+01	 3.735E+01	-2.206E-01	 1.889E-01	 2.699E+00	 1.963E-01	 5.193E-02	 1.192E-01	 1.799E-02	 1.898E-05	-5.201E+00
  11.872	 1.683E+01	 3.368E+00	 1.549E+00	 3.190E+00	 4.432E+02	 3.186E+00	-9.044E-03	-3.605E+00	-1.226E+01	 1.078E+01	 3.736E+01	-2.411E-01	 2.139E-01	 2.673E+00	 1.963E-01	 4.627E-02	 1.197E-01	 1.802E-02	-1.490E-06	-5.173E+00
  11.880	 1.681E+01	 3.225E+00	 1.112E+00	 3.341E+00	 4.433E+02	 3.186E+00	 8.170E-03	 4.506E+00	-1.230E+01	 1.082E+01	 3.736E+01	-2.424E-01	 2.472E-01	 2.695E+00	 1.958E-01	 4.418E-02	 1.201E-01	 1.806E-02	 1.431E-06	-5.166E+00
  11.888	 1.678E+01	 3.050E+00	 1.467E+00	 3.449E+00	 4.434E+02	 3.186E+00	 3.860E-02	 2.271E+00	-1.234E+01	 1.086E+01	 3.736E+01	-2.168E-01	 2.834E-01	 2.733E+00	 1.957E-01	 4.537E-02	 1.205E-01	 1.809E-02	 6.706E-06	-5.172E+00
  11.896	 1.676E+01	 2.865E+00	 2.178E+00	 3.503E+00	 4.435E+02	 3.186E+00	-1.404E-02	-1.862E+01	-1.238E+01	 1.089E+01	 3.737E+01	-1.613E-01	 3.193E-01	 2.719E+00	 1.953E-01	 4.992E-02	 1.210E-01	 1.812E-02	-2.563E-06	-5.162E+00
  11.904	 1.673E+01	 2.564E+00	 2.774E+00	 3.499E+00	 4.436E+02	 3.185E+00	-2.754E-01	-4.508E+01	-1.241E+01	 1.095E+01	 3.737E+01	-8.381E-02	 3.475E-01	 2.666E+00	 1.950E-01	 5.308E-02	 1.215E-01	 1.816E-02	-4.819E-05	-5.161E+00
  11.912	 1.669E+01	 1.983E+00	 3.079E+00	 3.436E+00	 4.437E+02	 3.181E+00	-6.601E-01	-4.527E+01	-1.245E+01	 1.103E+01	 3.738E+01	 1.013E-03	 3.639E-01	 2.630E+00	 1.949E-01	 5.062E-02	 1.222E-01	 1.822E-02	-1.152E-04	-5.170E+00
  11.920	 1.665E+01	 1.328E+00	 3.250E+00	 3.321E+00	 4.438E+02	 3.175E+00	-9.369E-01	-2.223E+01	-1.248E+01	 1.111E+01	 3.739E+01	 8.051E-02	 3.715E-01	 2.639E+00	 1.946E-01	 4.476E-02	 1.229E-01	 1.828E-02	-1.635E-04	-5.176E+00
  11.928	 1.662E+01	 1.153E+00	 3.387E+00	 3.164E+00	 4.439E+02	 3.167E+00	-1.026E+00	-2.128E+00	-1.251E+01	 1.118E+01	 3.740E+01	 1.431E-01	 3.712E-01	 2.647E+00	 1.941E-01	 4.171E-02	 1.236E-01	 1.834E-02	-1.792E-04	-5.176E+00
  11.936	 1.658E+01	 1.721E+00	 3.476E+00	 2.983E+00	 4.440E+02	 3.159E+00	-1.012E+00	 2.646E-01	-1.254E+01	 1.125E+01	 3.742E+01	 1.765E-01	 3.604E-01	 2.615E+00	 1.939E-01	 4.415E-02	 1.244E-01	 1.840E-02	-1.765E-04	-5.153E+00
  11.944	 1.654E+01	 2.423E+00	 3.509E+00	 2.792E+00	 4.441E+02	 3.150E+00	-1.093E+00	-2.278E+01	-1.257E+01	 1.133E+01	 3.743E+01	 1.741E-01	 3.388E-01	 2.571E+00	 1.936E-01	 4.876E-02	 1.251E-01	 1.847E-02	-1.909E-04	-5.125E+00
  11.952	 1.651E+01	 2.924E+00	 3.483E+00	 2.377E+00	 4.442E+02	 3.141E+00	-1.360E+00	-4.014E+01	-1.260E+01	 1.136E+01	 3.746E+01	 1.448E-01	 3.115E-01	 2.567E+00	 1.934E-01	 4.986E-02	 1.257E-01	 1.852E-02	-2.374E-04	-5.130E+00
  11.960	 1.649E+01	 3.145E+00	 3.400E+00	 1.732E+00	 4.442E+02	 3.129E+00	-1.654E+00	-2.960E+01	-1.262E+01	 1.127E+01	 3.750E+01	 9.498E-02	 2.846E-01	 2.597E+00	 1.932E-01	 4.644E-02	 1.260E-01	 1.854E-02	-2.887E-04	-5.157E+00
  11.968	 1.647E+01	 3.305E+00	 3.267E+00	 1.167E+00	 4.443E+02	 3.115E+00	-1.793E+00	-4.885E+00	-1.265E+01	 1.119E+01	 3.752E+01	 2.975E-02	 2.591E-01	 2.604E+00	 1.929E-01	 4.226E-02	 1.263E-01	 1.856E-02	-3.129E-04	-5.171E+00
  11.976	 1.645E+01	 3.426E+00	 3.099E+00	 1.310E+00	 4.444E+02	 3.100E+00	-1.761E+00	 1.031E+01	-1.268E+01	 1.110E+01	 3.754E+01	-3.890E-02	 2.346E-01	 2.583E+00	 1.928E-01	 4.113E-02	 1.266E-01	 1.858E-02	-3.074E-04	-5.158E+00
  11.984	 1.643E+01	 3.495E+00	 2.914E+00	 1.992E+00	 4.445E+02	 3.087E+00	-1.715E+00	-4.703E+00	-1.270E+01	 1.101E+01	 3.755E+01	-1.079E-01	 2.073E-01	 2.571E+00	 1.925E-01	 4.478E-02	 1.269E-01	 1.860E-02	-2.993E-04	-5.133E+00
  11.992	 1.641E+01	 3.506E+00	 2.674E+00	 2.643E+00	 4.445E+02	 3.072E+00	-1.874E+00	-3.364E+01	-1.273E+01	 1.092E+01	 3.756E+01	-1.745E-01	 1.913E-01	 2.610E+00	 1.923E-01	 4.724E-02	 1.272E-01	 1.862E-02	-3.269E-04	-5.142E+00
  12.000	 1.639E+01	 3.458E+00	 2.152E+00	 3.030E+00	 4.446E+02	 3.056E+00	-2.171E+00	-3.267E+01	-1.275E+01	 1.082E+01	 3.758E+01	-2.268E-01	 1.969E-01	 2.663E+00	 1.921E-01	 4.420E-02	 1.276E-01	 1.864E-02	-3.790E-04	-5.178E+00
  12.008	 1.635E+01	 3.355E+00	 1.479E+00	 3.208E+00	 4.447E+02	 3.038E+00	-2.314E+00	-1.042E+00	-1.278E+01	 1.074E+01	 3.759E+01	-2.487E-01	 2.178E-01	 2.662E+00	 1.920E-01	 3.942E-02	 1.284E-01	 1.871E-02	-4.039E-04	-5.193E+00
  12.016	 1.631E+01	 3.208E+00	 1.110E+00	 3.356E+00	 4.448E+02	 3.020E+00	-2.208E+00	 2.382E+01	-1.280E+01	 1.066E+01	 3.759E+01	-2.356E-01	 2.411E-01	 2.612E+00	 1.918E-01	 3.724E-02	 1.292E-01	 1.878E-02	-3.854E-04	-5.175E+00
  12.024	 1.628E+01	 3.030E+00	 1.542E+00	 3.459E+00	 4.449E+02	 3.003E+00	-1.981E+00	 2.917E+01	-1.282E+01	 1.058E+01	 3.759E+01	-1.951E-01	 2.641E-01	 2.591E+00	 1.916E-01	 3.720E-02	 1.300E-01	 1.885E-02	-3.457E-04	-5.150E+00
  12.032	 1.624E+01	 2.845E+00	 2.258E+00	 3.507E+00	 4.450E+02	 2.988E+00	-1.808E+00	 1.186E+01	-1.285E+01	 1.050E+01	 3.760E+01	-1.342E-01	 2.921E-01	 2.623E+00	 1.913E-01	 3.880E-02	 1.308E-01	 1.892E-02	-3.883E-03	-5.140E+00
  12.040	 1.620E+01	 2.508E+00	 2.827E+00	 3.495E+00	 4.450E+02	 2.974E+00	-1.803E+00	-9.462E+00	-1.287E+01	 1.042E+01	 3.760E+01	-6.321E-02	 3.225E-01	 2.674E+00	 1.911E-01	 3.988E-02	 1.317E-01	 1.899E-02	-8.133E-03	-5.160E+00
  12.048	 1.616E+01	 1.900E+00	 3.101E+00	 3.426E+00	 4.451E+02	 2.959E+00	-1.896E+00	-9.559E+00	-1.290E+01	 1.033E+01	 3.760E+01	 5.363E-03	 3.428E-01	 2.665E+00	 1.908E-01	 3.941E-02	 1.325E-01	 1.906E-02	-1.254E-02	-5.181E+00
  12.056	 1.617E+01	 1.261E+00	 3.269E+00	 3.304E+00	 4.452E+02	 2.944E+00	-1.913E+00	 6.882E+00	-1.292E+01	 1.030E+01	 3.762E+01	 6.928E-02	 3.451E-01	 2.585E+00	 1.907E-01	 3.840E-02	 1.322E-01	 1.903E-02	-1.709E-02	-5.184E+00
  12.064	 1.619E+01	 1.194E+00	 3.402E+00	 3.143E+00	 4.453E+02	 2.929E+00	-1.770E+00	 2.994E+01	-1.295E+01	 1.029E+01	 3.764E+01	 1.229E-01	 3.383E-01	 2.531E+00	 1.905E-01	 3.615E-02	 1.316E-01	 1.896E-02	-2.147E-02	-5.182E+00
  12.072	 1.621E+01	 1.817E+00	 3.485E+00	 2.959E+00	 4.454E+02	 2.916E+00	-1.428E+00	 5.289E+01	-1.297E+01	 1.028E+01	 3.767E+01	 1.548E-01	 3.344E-01	 2.548E+00	 1.902E-01	 3.355E-02	 1.310E-01	 1.889E-02	-2.524E-02	-5.171E+00
  12.080	 1.623E+01	 2.507E+00	 3.511E+00	 2.755E+00	 4.454E+02	 2.906E+00	-9.778E-01	 5.594E+01	-1.300E+01	 1.028E+01	 3.769E+01	 1.570E-01	 3.329E-01	 2.601E+00	 1.899E-01	 3.301E-02	 1.304E-01	 1.883E-02	-2.803E-02	-5.149E+00
  12.088	 1.625E+01	 2.968E+00	 3.476E+00	 2.299E+00	 4.455E+02	 2.900E+00	-5.916E-01	 3.796E+01	-1.304E+01	 1.028E+01	 3.771E+01	 1.306E-01	 3.178E-01	 2.610E+00	 1.897E-01	 3.521E-02	 1.298E-01	 1.876E-02	-2.979E-02	-5.126E+00
  12.096	 1.628E+01	 3.169E+00	 3.385E+00	 1.635E+00	 4.455E+02	 2.896E+00	-3.994E-01	 9.699E+00	-1.307E+01	 1.027E+01	 3.773E+01	 8.649E-02	 2.830E-01	 2.554E+00	 1.896E-01	 4.007E-02	 1.292E-01	 1.869E-02	-3.089E-02	-5.120E+00
  12.104	 1.629E+01	 3.326E+00	 3.246E+00	 1.130E+00	 4.456E+02	 2.893E+00	-3.925E-01	-2.772E+00	-1.310E+01	 1.035E+01	 3.776E+01	 3.414E-02	 2.498E-01	 2.505E+00	 1.894E-01	 4.256E-02	 1.287E-01	 1.865E-02	-3.181E-02	-5.153E+00
  12.112	 1.629E+01	 3.441E+00	 3.072E+00	 1.395E+00	 4.456E+02	 2.890E+00	-3.736E-01	 1.136E+01	-1.314E+01	 1.050E+01	 3.777E+01	-2.027E-02	 2.331E-01	 2.522E+00	 1.893E-01	 4.127E-02	 1.285E-01	 1.861E-02	-3.274E-02	-5.197E+00
  12.120	 1.630E+01	 3.502E+00	 2.886E+00	 2.101E+00	 4.457E+02	 2.887E+00	-2.201E-01	 2.486E+01	-1.317E+01	 1.065E+01	 3.777E+01	-8.216E-02	 2.225E-01	 2.572E+00	 1.890E-01	 3.911E-02	 1.283E-01	 1.858E-02	-3.344E-02	-5.202E+00
  12.128	 1.630E+01	 3.505E+00	 2.611E+00	 2.723E+00	 4.457E+02	 2.887E+00	-5.252E-03	 2.755E+01	-1.321E+01	 1.080E+01	 3.776E+01	-1.493E-01	 2.125E-01	 2.612E+00	 1.888E-01	 3.616E-02	 1.280E-01	 1.855E-02	-3.367E-02	-5.169E+00
  12.136	 1.631E+01	 3.448E+00	 2.049E+00	 3.060E+00	 4.458E+02	 2.887E+00	 2.083E-01	 2.412E+01	-1.324E+01	 1.096E+01	 3.776E+01	-2.077E-01	 2.055E-01	 2.607E+00	 1.888E-01	 3.469E-02	 1.278E-01	 1.852E-02	-3.339E-02	-5.128E+00
  12.144	 1.631E+01	 3.336E+00	 1.379E+00	 3.234E+00	 4.459E+02	 2.890E+00	 3.381E-01	 6.595E+00	-1.328E+01	 1.111E+01	 3.776E+01	-2.455E-01	 2.094E-01	 2.589E+00	 1.887E-01	 3.808E-02	 1.275E-01	 1.849E-02	-3.269E-02	-5.117E+00
  12.152	 1.633E+01	 3.181E+00	 1.129E+00	 3.376E+00	 4.460E+02	 2.892E+00	 3.121E-01	-1.181E+01	-1.332E+01	 1.120E+01	 3.776E+01	-2.595E-01	 2.291E-01	 2.631E+00	 1.886E-01	 4.216E-02	 1.269E-01	 1.843E-02	-3.189E-02	-5.157E+00
  12.160	 1.641E+01	 2.998E+00	 1.659E+00	 3.471E+00	 4.461E+02	 2.894E+00	 1.862E-01	-1.970E+01	-1.336E+01	 1.108E+01	 3.778E+01	-2.421E-01	 2.563E-01	 2.687E+00	 1.885E-01	 4.468E-02	 1.252E-01	 1.825E-02	-3.131E-02	-5.197E+00
  12.168	 1.648E+01	 2.809E+00	 2.371E+00	 3.510E+00	 4.462E+02	 2.895E+00	-1.736E-02	-3.137E+01	-1.339E+01	 1.097E+01	 3.780E+01	-1.880E-01	 2.830E-01	 2.703E+00	 1.883E-01	 4.593E-02	 1.235E-01	 1.808E-02	-3.113E-02	-5.204E+00
  12.176	 1.655E+01	 2.414E+00	 2.897E+00	 3.488E+00	 4.463E+02	 2.894E+00	-2.931E-01	-3.385E+01	-1.343E+01	 1.085E+01	 3.783E+01	-1.034E-01	 3.094E-01	 2.701E+00	 1.882E-01	 4.368E-02	 1.218E-01	 1.791E-02	-3.154E-02	-5.199E+00
  12.184	 1.663E+01	 1.773E+00	 3.133E+00	 3.409E+00	 4.464E+02	 2.891E+00	-4.902E-01	-1.339E+01	-1.346E+01	 1.074E+01	 3.786E+01	-7.084E-03	 3.377E-01	 2.708E+00	 1.881E-01	 3.814E-02	 1.202E-01	 1.773E-02	-3.254E-02	-5.184E+00
  12.192	 1.670E+01	 1.179E+00	 3.296E+00	 3.278E+00	 4.465E+02	 2.887E+00	-5.087E-01	 6.661E+00	-1.349E+01	 1.062E+01	 3.789E+01	 8.672E-02	 3.638E-01	 2.726E+00	 1.878E-01	 3.350E-02	 1.185E-01	 1.757E-02	-3.376E-02	-5.167E+00
  12.200	 1.677E+01	 1.272E+00	 3.421E+00	 3.110E+00	 4.466E+02	 2.883E+00	-4.350E-01	 7.965E+00	-1.352E+01	 1.051E+01	 3.791E+01	 1.614E-01	 3.844E-01	 2.736E+00	 1.876E-01	 3.505E-02	 1.169E-01	 1.740E-02	-3.487E-02	-5.167E+00
  12.208	 1.685E+01	 1.950E+00	 3.494E+00	 2.923E+00	 4.467E+02	 2.879E+00	-4.440E-01	-1.375E+01	-1.355E+01	 1.072E+01	 3.791E+01	 2.002E-01	 3.904E-01	 2.694E+00	 1.874E-01	 4.146E-02	 1.153E-01	 1.722E-02	-3.587E-02	-5.163E+00
  12.216	 1.692E+01	 2.615E+00	 3.509E+00	 2.690E+00	 4.468E+02	 2.875E+00	-6.554E-01	-3.619E+01	-1.358E+01	 1.094E+01	 3.792E+01	 2.001E-01	 3.817E-01	 2.657E+00	 1.871E-01	 4.485E-02	 1.136E-01	 1.705E-02	-3.718E-02	-5.164E+00
  12.224	 1.699E+01	 3.021E+00	 3.463E+00	 2.177E+00	 4.469E+02	 2.869E+00	-9.529E-01	-3.281E+01	-1.361E+01	 1.114E+01	 3.794E+01	 1.689E-01	 3.635E-01	 2.669E+00	 1.869E-01	 4.249E-02	 1.120E-01	 1.688E-02	-3.915E-02	-5.176E+00
  12.232	 1.707E+01	 3.203E+00	 3.361E+00	 1.500E+00	 4.470E+02	 2.860E+00	-1.155E+00	-1.769E+01	-1.364E+01	 1.135E+01	 3.795E+01	 1.125E-01	 3.332E-01	 2.674E+00	 1.866E-01	 3.920E-02	 1.104E-01	 1.671E-02	-4.171E-02	-5.175E+00
  12.240	 1.714E+01	 3.353E+00	 3.214E+00	 1.106E+00	 4.471E+02	 2.850E+00	-1.234E+00	-1.085E+00	-1.366E+01	 1.155E+01	 3.795E+01	 3.942E-02	 2.946E-01	 2.641E+00	 1.863E-01	 3.593E-02	 1.088E-01	 1.654E-02	-4.458E-02	-5.175E+00
  12.248	 1.721E+01	 3.458E+00	 3.035E+00	 1.521E+00	 4.471E+02	 2.841E+00	-1.161E+00	 1.767E+01	-1.369E+01	 1.175E+01	 3.796E+01	-3.888E-02	 2.471E-01	 2.560E+00	 1.862E-01	 3.566E-02	 1.073E-01	 1.637E-02	-4.744E-02	-5.160E+00
  12.256	 1.722E+01	 3.508E+00	 2.848E+00	 2.242E+00	 4.472E+02	 2.832E+00	-1.030E+00	 1.054E+01	-1.372E+01	 1.186E+01	 3.798E+01	-1.193E-01	 2.039E-01	 2.533E+00	 1.858E-01	 4.022E-02	 1.071E-01	 1.635E-02	-5.001E-02	-5.136E+00
  12.264	 1.720E+01	 3.498E+00	 2.515E+00	 2.820E+00	 4.473E+02	 2.824E+00	-1.011E+00	-3.829E+00	-1.374E+01	 1.193E+01	 3.800E+01	-1.921E-01	 1.847E-01	 2.601E+00	 1.856E-01	 4.169E-02	 1.073E-01	 1.636E-02	-5.240E-02	-5.138E+00
  12.272	 1.718E+01	 3.428E+00	 1.907E+00	 3.099E+00	 4.474E+02	 2.816E+00	-1.027E+00	 1.864E+00	-1.377E+01	 1.199E+01	 3.802E+01	-2.435E-01	 1.873E-01	 2.660E+00	 1.854E-01	 3.890E-02	 1.076E-01	 1.638E-02	-5.484E-02	-5.152E+00
  12.280	 1.716E+01	 3.306E+00	 1.263E+00	 3.269E+00	 4.474E+02	 2.808E+00	-9.883E-01	 6.321E+00	-1.379E+01	 1.206E+01	 3.803E+01	-2.631E-01	 1.949E-01	 2.631E+00	 1.851E-01	 3.763E-02	 1.079E-01	 1.640E-02	-5.723E-02	-5.158E+00
  12.288	 1.714E+01	 3.143E+00	 1.191E+00	 3.402E+00	 4.475E+02	 2.800E+00	-9.368E-01	 5.933E+00	-1.382E+01	 1.213E+01	 3.803E+01	-2.571E-01	 2.083E-01	 2.597E+00	 1.852E-01	 3.887E-02	 1.081E-01	 1.642E-02	-5.950E-02	-5.177E+00
  12.296	 1.712E+01	 2.957E+00	 1.817E+00	 3.486E+00	 4.476E+02	 2.793E+00	-8.913E-01	 5.265E+00	-1.384E+01	 1.220E+01	 3.806E+01	-2.242E-01	 2.358E-01	 2.617E+00	 1.850E-01	 4.147E-02	 1.084E-01	 1.644E-02	-6.166E-02	-5.183E+00
  12.304	 1.712E+01	 2.751E+00	 2.510E+00	 3.511E+00	 4.477E+02	 2.786E+00	-8.420E-01	 7.648E+00	-1.387E+01	 1.215E+01	 3.809E+01	-1.591E-01	 2.826E-01	 2.688E+00	 1.846E-01	 4.171E-02	 1.082E-01	 1.641E-02	-6.372E-02	-5.170E+00
  12.312	 1.715E+01	 2.287E+00	 2.973E+00	 3.476E+00	 4.478E+02	 2.779E+00	-7.796E-01	 7.397E+00	-1.389E+01	 1.199E+01	 3.812E+01	-6.571E-02	 3.347E-01	 2.742E+00	 1.846E-01	 4.167E-02	 1.077E-01	 1.635E-02	-6.563E-02	-5.164E+00
  12.320	 1.718E+01	 1.617E+00	 3.173E+00	 3.383E+00	 4.479E+02	 2.773E+00	-7.432E-01	 1.084E+00	-1.392E+01	 1.182E+01	 3.813E+01	 3.271E-02	 3.693E-01	 2.727E+00	 1.843E-01	 4.229E-02	 1.071E-01	 1.628E-02	-6.742E-02	-5.177E+00
  12.328	 1.720E+01	 1.118E+00	 3.329E+00	 3.241E+00	 4.480E+02	 2.767E+00	-7.112E-01	 1.315E+01	-1.394E+01	 1.165E+01	 3.813E+01	 1.201E-01	 3.791E-01	 2.691E+00	 1.841E-01	 3.851E-02	 1.065E-01	 1.622E-02	-6.916E-02	-5.199E+00
  12.336	 1.723E+01	 1.408E+00	 3.443E+00	 3.066E+00	 4.481E+02	 2.762E+00	-4.704E-01	 4.684E+01	-1.397E+01	 1.149E+01	 3.814E+01	 1.802E-01	 3.773E-01	 2.670E+00	 1.842E-01	 3.448E-02	 1.060E-01	 1.615E-02	-7.057E-02	-5.195E+00
  12.344	 1.726E+01	 2.123E+00	 3.503E+00	 2.878E+00	 4.482E+02	 2.760E+00	-8.728E-02	 3.915E+01	-1.399E+01	 1.133E+01	 3.815E+01	 1.932E-01	 3.765E-01	 2.665E+00	 1.836E-01	 3.906E-02	 1.054E-01	 1.608E-02	-7.116E-02	-5.155E+00
  12.352	 1.727E+01	 2.742E+00	 3.503E+00	 2.593E+00	 4.483E+02	 2.760E+00	 4.785E-02	-6.874E+00	-1.402E+01	 1.127E+01	 3.816E+01	 1.702E-01	 3.683E-01	 2.684E+00	 1.834E-01	 4.556E-02	 1.052E-01	 1.605E-02	-7.110E-02	-5.133E+00
  12.360	 1.723E+01	 3.069E+00	 3.443E+00	 2.019E+00	 4.484E+02	 2.760E+00	-1.163E-01	-2.642E+01	-1.405E+01	 1.153E+01	 3.818E+01	 1.273E-01	 3.373E-01	 2.678E+00	 1.832E-01	 4.687E-02	 1.058E-01	 1.610E-02	-7.118E-02	-5.153E+00
  12.368	 1.719E+01	 3.244E+00	 3.328E+00	 1.351E+00	 4.485E+02	 2.758E+00	-2.852E-01	-1.250E+01	-1.408E+01	 1.178E+01	 3.820E+01	 7.320E-02	 2.897E-01	 2.628E+00	 1.828E-01	 4.558E-02	 1.064E-01	 1.616E-02	-7.171E-02	-5.177E+00
  12.376	 1.715E+01	 3.385E+00	 3.170E+00	 1.142E+00	 4.485E+02	 2.756E+00	-2.987E-01	 9.021E+00	-1.410E+01	 1.204E+01	 3.822E+01	 1.016E-02	 2.474E-01	 2.580E+00	 1.828E-01	 4.430E-02	 1.071E-01	 1.622E-02	-7.244E-02	-5.192E+00
  12.384	 1.711E+01	 3.477E+00	 2.987E+00	 1.703E+00	 4.486E+02	 2.754E+00	-1.601E-01	 2.154E+01	-1.413E+01	 1.229E+01	 3.822E+01	-6.555E-02	 2.127E-01	 2.555E+00	 1.825E-01	 4.450E-02	 1.077E-01	 1.627E-02	-7.298E-02	-5.176E+00
  12.392	 1.707E+01	 3.511E+00	 2.795E+00	 2.414E+00	 4.487E+02	 2.753E+00	-9.687E-03	 1.392E+01	-1.415E+01	 1.255E+01	 3.823E+01	-1.480E-01	 1.851E-01	 2.567E+00	 1.820E-01	 4.503E-02	 1.084E-01	 1.633E-02	-7.315E-02	-5.135E+00
  12.400	 1.703E+01	 3.485E+00	 2.378E+00	 2.924E+00	 4.487E+02	 2.754E+00	 3.021E-02	-4.071E+00	-1.418E+01	 1.281E+01	 3.825E+01	-2.207E-01	 1.681E-01	 2.588E+00	 1.819E-01	 4.616E-02	 1.090E-01	 1.639E-02	-7.309E-02	-5.118E+00
  12.408	 1.702E+01	 3.400E+00	 1.726E+00	 3.147E+00	 4.488E+02	 2.754E+00	-5.820E-02	-1.729E+01	-1.420E+01	 1.282E+01	 3.826E+01	-2.691E-01	 1.669E-01	 2.578E+00	 1.816E-01	 4.875E-02	 1.090E-01	 1.638E-02	-7.311E-02	-5.139E+00
  12.416	 1.701E+01	 3.265E+00	 1.160E+00	 3.309E+00	 4.488E+02	 2.753E+00	-2.121E-01	-1.739E+01	-1.422E+01	 1.282E+01	 3.827E+01	-2.835E-01	 1.825E-01	 2.560E+00	 1.815E-01	 4.981E-02	 1.091E-01	 1.638E-02	-7.346E-02	-5.178E+00
  12.424	 1.700E+01	 3.093E+00	 1.325E+00	 3.431E+00	 4.489E+02	 2.750E+00	-2.771E-01	 3.867E+00	-1.425E+01	 1.282E+01	 3.829E+01	-2.590E-01	 2.118E-01	 2.558E+00	 1.816E-01	 4.791E-02	 1.091E-01	 1.637E-02	-7.409E-02	-5.200E+00
  12.432	 1.699E+01	 2.905E+00	 2.020E+00	 3.499E+00	 4.490E+02	 2.749E+00	-2.078E-01	 8.611E+00	-1.427E+01	 1.282E+01	 3.831E+01	-1.952E-01	 2.474E-01	 2.569E+00	 1.811E-01	 4.759E-02	 1.091E-01	 1.637E-02	-7.466E-02	-5.179E+00
  12.440	 1.699E+01	 2.654E+00	 2.669E+00	 3.508E+00	 4.491E+02	 2.747E+00	-1.838E-01	-3.161E+00	-1.429E+01	 1.282E+01	 3.833E+01	-9.959E-02	 2.852E-01	 2.579E+00	 1.809E-01	 4.617E-02	 1.092E-01	 1.637E-02	-7.510E-02	-5.149E+00
  12.448	 1.698E+01	 2.114E+00	 3.043E+00	 3.456E+00	 4.491E+02	 2.745E+00	-2.227E-01	-3.236E+00	-1.431E+01	 1.282E+01	 3.833E+01	-7.165E-04	 3.212E-01	 2.570E+00	 1.807E-01	 4.313E-02	 1.092E-01	 1.636E-02	-7.559E-02	-5.145E+00
  12.456	 1.703E+01	 1.436E+00	 3.221E+00	 3.348E+00	 4.491E+02	 2.744E+00	-2.120E-01	 5.865E+00	-1.432E+01	 1.302E+01	 3.833E+01	 8.133E-02	 3.537E-01	 2.548E+00	 1.804E-01	 4.329E-02	 1.081E-01	 1.625E-02	-7.612E-02	-5.159E+00
  12.464	 1.710E+01	 1.118E+00	 3.368E+00	 3.195E+00	 4.492E+02	 2.742E+00	-1.393E-01	 1.150E+01	-1.434E+01	 1.329E+01	 3.833E+01	 1.446E-01	 3.739E-01	 2.542E+00	 1.806E-01	 4.510E-02	 1.066E-01	 1.609E-02	-7.653E-02	-5.169E+00
  12.472	 1.717E+01	 1.605E+00	 3.467E+00	 3.013E+00	 4.493E+02	 2.741E+00	-3.703E-02	 1.034E+01	-1.436E+01	 1.355E+01	 3.833E+01	 1.780E-01	 3.799E-01	 2.551E+00	 1.803E-01	 4.654E-02	 1.052E-01	 1.594E-02	-7.672E-02	-5.161E+00
  12.480	 1.724E+01	 2.326E+00	 3.510E+00	 2.825E+00	 4.493E+02	 2.741E+00	-2.692E-02	-8.004E+00	-1.437E+01	 1.381E+01	 3.834E+01	 1.827E-01	 3.744E-01	 2.558E+00	 1.800E-01	 4.657E-02	 1.038E-01	 1.580E-02	-7.676E-02	-5.149E+00
  12.488	 1.731E+01	 2.873E+00	 3.493E+00	 2.451E+00	 4.494E+02	 2.741E+00	-1.306E-01	-1.412E+01	-1.439E+01	 1.407E+01	 3.836E+01	 1.653E-01	 3.562E-01	 2.563E+00	 1.799E-01	 4.357E-02	 1.024E-01	 1.565E-02	-7.696E-02	-5.164E+00
  12.496	 1.738E+01	 3.123E+00	 3.415E+00	 1.816E+00	 4.494E+02	 2.739E+00	-1.843E-01	 2.939E+00	-1.440E+01	 1.432E+01	 3.837E+01	 1.296E-01	 3.279E-01	 2.555E+00	 1.796E-01	 4.013E-02	 1.011E-01	 1.551E-02	-7.737E-02	-5.192E+00
  12.504	 1.740E+01	 3.290E+00	 3.286E+00	 1.202E+00	 4.495E+02	 2.738E+00	-6.991E-02	 2.466E+01	-1.441E+01	 1.449E+01	 3.838E+01	 7.253E-02	 2.950E-01	 2.564E+00	 1.796E-01	 3.793E-02	 1.006E-01	 1.546E-02	-7.769E-02	-5.192E+00
  12.512	 1.737E+01	 3.418E+00	 3.118E+00	 1.252E+00	 4.495E+02	 2.739E+00	 1.789E-01	 3.458E+01	-1.443E+01	 1.456E+01	 3.838E+01	-1.123E-02	 2.597E-01	 2.596E+00	 1.798E-01	 3.679E-02	 1.011E-01	 1.550E-02	-7.753E-02	-5.171E+00
  12.520	 1.734E+01	 3.494E+00	 2.931E+00	 1.923E+00	 4.496E+02	 2.741E+00	 3.998E-01	 1.552E+01	-1.444E+01	 1.464E+01	 3.838E+01	-1.074E-01	 2.208E-01	 2.602E+00	 1.794E-01	 3.850E-02	 1.016E-01	 1.554E-02	-7.677E-02	-5.148E+00
  12.528	 1.731E+01	 3.510E+00	 2.702E+00	 2.597E+00	 4.497E+02	 2.744E+00	 4.283E-01	-4.989E+00	-1.446E+01	 1.472E+01	 3.839E+01	-1.903E-01	 1.934E-01	 2.600E+00	 1.794E-01	 3.828E-02	 1.020E-01	 1.558E-02	-7.575E-02	-5.158E+00
  12.536	 1.728E+01	 3.466E+00	 2.193E+00	 3.014E+00	 4.498E+02	 2.748E+00	 3.914E-01	 3.967E-01	-1.447E+01	 1.480E+01	 3.841E+01	-2.483E-01	 1.817E-01	 2.619E+00	 1.791E-01	 3.577E-02	 1.025E-01	 1.562E-02	-7.479E-02	-5.197E+00
  12.544	 1.725E+01	 3.365E+00	 1.512E+00	 3.200E+00	 4.498E+02	 2.751E+00	 4.623E-01	 1.727E+01	-1.448E+01	 1.488E+01	 3.841E+01	-2.734E-01	 1.782E-01	 2.644E+00	 1.789E-01	 3.419E-02	 1.029E-01	 1.566E-02	-7.380E-02	-5.217E+00
  12.552	 1.725E+01	 3.217E+00	 1.103E+00	 3.352E+00	 4.499E+02	 2.755E+00	 6.556E-01	 3.023E+01	-1.449E+01	 1.489E+01	 3.842E+01	-2.668E-01	 1.839E-01	 2.651E+00	 1.789E-01	 3.184E-02	 1.030E-01	 1.566E-02	-7.246E-02	-5.198E+00
  12.560	 1.731E+01	 3.037E+00	 1.515E+00	 3.459E+00	 4.500E+02	 2.762E+00	 9.219E-01	 3.305E+01	-1.451E+01	 1.472E+01	 3.843E+01	-2.301E-01	 2.005E-01	 2.618E+00	 1.789E-01	 2.999E-02	 1.017E-01	 1.553E-02	-7.054E-02	-5.165E+00
  12.568	 1.738E+01	 2.848E+00	 2.241E+00	 3.509E+00	 4.500E+02	 2.770E+00	 1.136E+00	 2.044E+01	-1.452E+01	 1.455E+01	 3.846E+01	-1.702E-01	 2.256E-01	 2.581E+00	 1.785E-01	 3.033E-02	 1.005E-01	 1.540E-02	-6.804E-02	-5.150E+00
  12.576	 1.744E+01	 2.512E+00	 2.822E+00	 3.499E+00	 4.501E+02	 2.780E+00	 1.278E+00	 1.726E+01	-1.454E+01	 1.438E+01	 3.848E+01	-9.851E-02	 2.614E-01	 2.600E+00	 1.785E-01	 2.975E-02	 9.930E-02	 1.527E-02	-6.515E-02	-5.164E+00
  12.584	 1.751E+01	 1.896E+00	 3.101E+00	 3.429E+00	 4.502E+02	 2.791E+00	 1.436E+00	 2.082E+01	-1.455E+01	 1.422E+01	 3.851E+01	-2.677E-02	 2.978E-01	 2.630E+00	 1.781E-01	 2.932E-02	 9.811E-02	 1.514E-02	-6.190E-02	-5.177E+00
  12.592	 1.758E+01	 1.250E+00	 3.272E+00	 3.305E+00	 4.502E+02	 2.803E+00	 1.568E+00	 9.434E+00	-1.457E+01	 1.405E+01	 3.854E+01	 4.794E-02	 3.316E-01	 2.630E+00	 1.780E-01	 3.012E-02	 9.693E-02	 1.501E-02	-5.830E-02	-5.161E+00
  12.600	 1.765E+01	 1.198E+00	 3.406E+00	 3.139E+00	 4.503E+02	 2.815E+00	 1.571E+00	-8.073E+00	-1.458E+01	 1.389E+01	 3.856E+01	 1.265E-01	 3.607E-01	 2.617E+00	 1.781E-01	 3.095E-02	 9.578E-02	 1.489E-02	-5.454E-02	-5.161E+00
  12.608	 1.764E+01	 1.839E+00	 3.489E+00	 2.952E+00	 4.504E+02	 2.827E+00	 1.459E+00	-1.910E+01	-1.460E+01	 1.395E+01	 3.857E+01	 1.863E-01	 3.827E-01	 2.604E+00	 1.778E-01	 3.266E-02	 9.576E-02	 1.488E-02	-5.095E-02	-5.179E+00
  12.616	 1.764E+01	 2.532E+00	 3.513E+00	 2.738E+00	 4.505E+02	 2.839E+00	 1.321E+00	-1.144E+01	-1.461E+01	 1.400E+01	 3.858E+01	 2.114E-01	 3.921E-01	 2.622E+00	 1.776E-01	 3.161E-02	 9.573E-02	 1.487E-02	-4.768E-02	-5.189E+00
  12.624	 1.763E+01	 2.985E+00	 3.475E+00	 2.258E+00	 4.506E+02	 2.849E+00	 1.302E+00	 6.105E+00	-1.462E+01	 1.406E+01	 3.858E+01	 1.935E-01	 3.851E-01	 2.653E+00	 1.774E-01	 2.837E-02	 9.570E-02	 1.486E-02	-4.460E-02	-5.172E+00
  12.632	 1.763E+01	 3.182E+00	 3.379E+00	 1.579E+00	 4.506E+02	 2.860E+00	 1.341E+00	-2.302E+00	-1.464E+01	 1.411E+01	 3.856E+01	 1.339E-01	 3.598E-01	 2.650E+00	 1.771E-01	 2.841E-02	 9.567E-02	 1.485E-02	-4.145E-02	-5.136E+00
  12.640	 1.763E+01	 3.338E+00	 3.234E+00	 1.107E+00	 4.507E+02	 2.870E+00	 1.215E+00	-2.837E+01	-1.465E+01	 1.417E+01	 3.856E+01	 4.853E-02	 3.200E-01	 2.631E+00	 1.771E-01	 2.975E-02	 9.564E-02	 1.484E-02	-3.839E-02	-5.130E+00
  12.648	 1.762E+01	 3.450E+00	 3.056E+00	 1.446E+00	 4.508E+02	 2.879E+00	 9.336E-01	-3.921E+01	-1.466E+01	 1.422E+01	 3.856E+01	-4.479E-02	 2.712E-01	 2.609E+00	 1.770E-01	 3.161E-02	 9.561E-02	 1.483E-02	-3.587E-02	-5.160E+00
  12.656	 1.760E+01	 3.507E+00	 2.866E+00	 2.171E+00	 4.509E+02	 2.885E+00	 5.984E-01	-4.274E+01	-1.466E+01	 1.418E+01	 3.857E+01	-1.326E-01	 2.242E-01	 2.604E+00	 1.766E-01	 3.491E-02	 9.588E-02	 1.485E-02	-3.411E-02	-5.180E+00
  12.664	 1.757E+01	 3.503E+00	 2.557E+00	 2.778E+00	 4.509E+02	 2.888E+00	 2.834E-01	-3.488E+01	-1.467E+01	 1.410E+01	 3.858E+01	-2.049E-01	 1.936E-01	 2.628E+00	 1.764E-01	 3.444E-02	 9.625E-02	 1.488E-02	-3.313E-02	-5.170E+00
  12.672	 1.754E+01	 3.438E+00	 1.960E+00	 3.084E+00	 4.510E+02	 2.889E+00	 4.260E-02	-2.688E+01	-1.467E+01	 1.402E+01	 3.860E+01	-2.560E-01	 1.743E-01	 2.632E+00	 1.761E-01	 3.200E-02	 9.662E-02	 1.491E-02	-3.280E-02	-5.147E+00
  12.680	 1.752E+01	 3.319E+00	 1.296E+00	 3.258E+00	 4.511E+02	 2.889E+00	-1.775E-01	-2.869E+01	-1.467E+01	 1.394E+01	 3.861E+01	-2.780E-01	 1.640E-01	 2.597E+00	 1.758E-01	 3.012E-02	 9.699E-02	 1.494E-02	-3.299E-02	-5.129E+00
  12.688	 1.749E+01	 3.156E+00	 1.163E+00	 3.396E+00	 4.511E+02	 2.887E+00	-4.023E-01	-2.638E+01	-1.467E+01	 1.386E+01	 3.863E+01	-2.673E-01	 1.716E-01	 2.553E+00	 1.759E-01	 2.856E-02	 9.736E-02	 1.497E-02	-3.373E-02	-5.136E+00
  12.696	 1.746E+01	 2.970E+00	 1.772E+00	 3.484E+00	 4.512E+02	 2.883E+00	-6.070E-01	-2.835E+01	-1.466E+01	 1.377E+01	 3.865E+01	-2.195E-01	 1.964E-01	 2.537E+00	 1.756E-01	 3.146E-02	 9.775E-02	 1.500E-02	-3.496E-02	-5.148E+00
  12.704	 1.746E+01	 2.767E+00	 2.479E+00	 3.513E+00	 4.512E+02	 2.877E+00	-8.697E-01	-3.572E+01	-1.466E+01	 1.366E+01	 3.868E+01	-1.367E-01	 2.310E-01	 2.561E+00	 1.753E-01	 3.386E-02	 9.772E-02	 1.500E-02	-3.674E-02	-5.149E+00
  12.712	 1.748E+01	 2.313E+00	 2.960E+00	 3.481E+00	 4.513E+02	 2.869E+00	-1.139E+00	-2.832E+01	-1.465E+01	 1.351E+01	 3.869E+01	-3.740E-02	 2.664E-01	 2.588E+00	 1.751E-01	 3.116E-02	 9.729E-02	 1.495E-02	-3.918E-02	-5.149E+00
  12.720	 1.750E+01	 1.641E+00	 3.167E+00	 3.390E+00	 4.513E+02	 2.859E+00	-1.293E+00	-1.018E+01	-1.464E+01	 1.337E+01	 3.870E+01	 5.190E-02	 2.998E-01	 2.577E+00	 1.748E-01	 2.745E-02	 9.686E-02	 1.490E-02	-4.212E-02	-5.152E+00
  12.728	 1.752E+01	 1.122E+00	 3.326E+00	 3.249E+00	 4.514E+02	 2.848E+00	-1.301E+00	 8.266E+00	-1.462E+01	 1.322E+01	 3.871E+01	 1.217E-01	 3.258E-01	 2.558E+00	 1.748E-01	 2.427E-02	 9.644E-02	 1.485E-02	-4.523E-02	-5.149E+00
  12.736	 1.754E+01	 1.393E+00	 3.443E+00	 3.073E+00	 4.515E+02	 2.838E+00	-1.163E+00	 2.465E+01	-1.461E+01	 1.307E+01	 3.872E+01	 1.631E-01	 3.447E-01	 2.563E+00	 1.749E-01	 2.265E-02	 9.603E-02	 1.480E-02	-4.816E-02	-5.145E+00
  12.744	 1.756E+01	 2.112E+00	 3.504E+00	 2.883E+00	 4.515E+02	 2.830E+00	-9.889E-01	 1.560E+01	-1.460E+01	 1.292E+01	 3.873E+01	 1.659E-01	 3.602E-01	 2.593E+00	 1.745E-01	 2.538E-02	 9.562E-02	 1.475E-02	-5.067E-02	-5.141E+00
  12.752	 1.756E+01	 2.738E+00	 3.505E+00	 2.597E+00	 4.516E+02	 2.822E+00	-9.126E-01	 6.403E+00	-1.459E+01	 1.278E+01	 3.874E+01	 1.411E-01	 3.626E-01	 2.615E+00	 1.744E-01	 2.550E-02	 9.556E-02	 1.474E-02	-5.290E-02	-5.147E+00
  12.760	 1.750E+01	 3.068E+00	 3.445E+00	 2.018E+00	 4.516E+02	 2.815E+00	-8.244E-01	 1.834E+01	-1.457E+01	 1.266E+01	 3.875E+01	 1.006E-01	 3.470E-01	 2.598E+00	 1.741E-01	 2.285E-02	 9.652E-02	 1.483E-02	-5.496E-02	-5.165E+00
[...]
  69.312	 1.816E+01	 3.485E+00	 2.348E+00	 2.937E+00	 4.544E+02	 3.174E+00	-1.536E-01	 6.138E+00	-8.019E+00	 5.935E+00	 3.915E+01	-1.920E-01	 2.634E-01	 2.771E+00	 1.689E-01	 1.116E-02	 8.432E-02	 1.335E-02	-2.675E-05	-5.155E+00
  69.320	 1.815E+01	 3.397E+00	 1.675E+00	 3.155E+00	 4.545E+02	 3.172E+00	-2.242E-01	-2.057E+01	-8.007E+00	 5.750E+00	 3.916E+01	-2.140E-01	 2.224E-01	 2.715E+00	 1.684E-01	 1.490E-02	 8.423E-02	 1.333E-02	-3.907E-05	-5.145E+00
  69.328	 1.815E+01	 3.258E+00	 1.125E+00	 3.318E+00	 4.546E+02	 3.170E+00	-4.038E-01	-1.946E+01	-7.995E+00	 5.563E+00	 3.917E+01	-2.255E-01	 2.044E-01	 2.738E+00	 1.682E-01	 1.467E-02	 8.415E-02	 1.331E-02	-7.039E-05	-5.164E+00
  69.336	 1.814E+01	 3.082E+00	 1.363E+00	 3.439E+00	 4.547E+02	 3.166E+00	-4.730E-01	 3.421E+00	-7.982E+00	 5.376E+00	 3.919E+01	-2.207E-01	 2.079E-01	 2.802E+00	 1.678E-01	 1.094E-02	 8.407E-02	 1.329E-02	-8.242E-05	-5.197E+00
  69.344	 1.814E+01	 2.890E+00	 2.085E+00	 3.504E+00	 4.548E+02	 3.163E+00	-3.557E-01	 2.437E+01	-7.969E+00	 5.189E+00	 3.921E+01	-1.909E-01	 2.154E-01	 2.819E+00	 1.672E-01	 8.731E-03	 8.398E-02	 1.327E-02	-6.209E-05	-5.218E+00
  69.352	 1.813E+01	 2.607E+00	 2.723E+00	 3.507E+00	 4.549E+02	 3.161E+00	-1.250E-01	 3.093E+01	-7.958E+00	 5.024E+00	 3.925E+01	-1.290E-01	 2.176E-01	 2.729E+00	 1.670E-01	 8.797E-03	 8.401E-02	 1.326E-02	-2.186E-05	-5.184E+00
  69.360	 1.809E+01	 2.026E+00	 3.063E+00	 3.448E+00	 4.550E+02	 3.161E+00	 9.723E-02	 2.144E+01	-7.949E+00	 4.925E+00	 3.930E+01	-4.919E-02	 2.312E-01	 2.639E+00	 1.667E-01	 8.472E-03	 8.439E-02	 1.329E-02	 1.696E-05	-5.127E+00
  69.368	 1.806E+01	 1.342E+00	 3.241E+00	 3.333E+00	 4.551E+02	 3.162E+00	 1.798E-01	-1.842E+00	-7.942E+00	 4.826E+00	 3.936E+01	 3.093E-02	 2.700E-01	 2.677E+00	 1.664E-01	 9.350E-03	 8.478E-02	 1.332E-02	 3.140E-05	-5.118E+00
  69.376	 1.802E+01	 1.133E+00	 3.385E+00	 3.173E+00	 4.552E+02	 3.163E+00	 9.865E-02	-1.386E+01	-7.934E+00	 4.728E+00	 3.941E+01	 1.009E-01	 3.157E-01	 2.768E+00	 1.661E-01	 1.025E-02	 8.518E-02	 1.335E-02	 1.721E-05	-5.166E+00
  69.384	 1.799E+01	 1.716E+00	 3.479E+00	 2.985E+00	 4.553E+02	 3.164E+00	 4.188E-02	 3.065E+00	-7.927E+00	 4.629E+00	 3.943E+01	 1.475E-01	 3.467E-01	 2.789E+00	 1.655E-01	 8.788E-03	 8.557E-02	 1.338E-02	 7.361E-06	-5.219E+00
  69.392	 1.795E+01	 2.437E+00	 3.513E+00	 2.785E+00	 4.554E+02	 3.164E+00	 1.345E-01	 1.606E+01	-7.920E+00	 4.529E+00	 3.945E+01	 1.649E-01	 3.610E-01	 2.703E+00	 1.654E-01	 9.193E-03	 8.597E-02	 1.341E-02	 2.342E-05	-5.211E+00
  69.400	 1.792E+01	 2.940E+00	 3.485E+00	 2.342E+00	 4.555E+02	 3.166E+00	 2.422E-01	 8.775E+00	-7.914E+00	 4.431E+00	 3.946E+01	 1.458E-01	 3.684E-01	 2.610E+00	 1.651E-01	 1.166E-02	 8.638E-02	 1.345E-02	 4.223E-05	-5.156E+00
  69.408	 1.782E+01	 3.157E+00	 3.397E+00	 1.667E+00	 4.555E+02	 3.168E+00	 2.720E-01	 5.590E-01	-7.909E+00	 4.377E+00	 3.946E+01	 9.579E-02	 3.734E-01	 2.618E+00	 1.646E-01	 1.173E-02	 8.767E-02	 1.357E-02	 4.749E-05	-5.122E+00
  69.416	 1.773E+01	 3.321E+00	 3.257E+00	 1.122E+00	 4.556E+02	 3.170E+00	 2.805E-01	 2.220E+00	-7.905E+00	 4.322E+00	 3.946E+01	 2.995E-02	 3.689E-01	 2.673E+00	 1.645E-01	 8.905E-03	 8.900E-02	 1.370E-02	 4.888E-05	-5.132E+00
  69.424	 1.763E+01	 3.441E+00	 3.080E+00	 1.373E+00	 4.557E+02	 3.172E+00	 3.118E-01	 5.929E+00	-7.902E+00	 4.268E+00	 3.945E+01	-3.908E-02	 3.471E-01	 2.688E+00	 1.642E-01	 5.704E-03	 9.035E-02	 1.383E-02	 5.443E-05	-5.166E+00
  69.432	 1.754E+01	 3.505E+00	 2.887E+00	 2.099E+00	 4.558E+02	 3.175E+00	 3.757E-01	 9.245E+00	-7.900E+00	 4.215E+00	 3.944E+01	-9.870E-02	 3.120E-01	 2.669E+00	 1.638E-01	 6.266E-03	 9.174E-02	 1.396E-02	 6.555E-05	-5.190E+00
  69.440	 1.744E+01	 3.507E+00	 2.599E+00	 2.734E+00	 4.558E+02	 3.178E+00	 4.415E-01	 6.733E+00	-7.899E+00	 4.162E+00	 3.942E+01	-1.453E-01	 2.722E-01	 2.639E+00	 1.637E-01	 9.551E-03	 9.316E-02	 1.409E-02	 7.705E-05	-5.168E+00
  69.448	 1.735E+01	 3.447E+00	 2.011E+00	 3.067E+00	 4.559E+02	 3.182E+00	 4.717E-01	-1.020E-01	-7.899E+00	 4.110E+00	 3.940E+01	-1.857E-01	 2.386E-01	 2.628E+00	 1.633E-01	 1.044E-02	 9.462E-02	 1.423E-02	 8.245E-05	-5.130E+00
  69.456	 1.732E+01	 3.330E+00	 1.327E+00	 3.246E+00	 4.560E+02	 3.186E+00	 4.353E-01	-8.329E+00	-7.901E+00	 4.309E+00	 3.940E+01	-2.155E-01	 2.149E-01	 2.651E+00	 1.631E-01	 9.930E-03	 9.482E-02	 1.425E-02	 7.591E-05	-5.127E+00
  69.464	 1.732E+01	 3.169E+00	 1.140E+00	 3.389E+00	 4.561E+02	 3.189E+00	 3.663E-01	-5.773E+00	-7.902E+00	 4.592E+00	 3.941E+01	-2.263E-01	 1.991E-01	 2.663E+00	 1.632E-01	 8.340E-03	 9.460E-02	 1.421E-02	 6.400E-05	-5.146E+00
  69.472	 1.732E+01	 2.980E+00	 1.737E+00	 3.481E+00	 4.561E+02	 3.192E+00	 3.954E-01	 1.421E+01	-7.905E+00	 4.875E+00	 3.944E+01	-2.183E-01	 1.990E-01	 2.685E+00	 1.627E-01	 5.030E-03	 9.439E-02	 1.419E-02	 6.911E-05	-5.173E+00
  69.480	 1.732E+01	 2.777E+00	 2.457E+00	 3.514E+00	 4.562E+02	 3.196E+00	 5.453E-01	 1.748E+01	-7.909E+00	 5.160E+00	 3.948E+01	-1.787E-01	 2.121E-01	 2.685E+00	 1.625E-01	 7.253E-03	 9.417E-02	 1.416E-02	 9.526E-05	-5.166E+00
  69.488	 1.732E+01	 2.324E+00	 2.951E+00	 3.483E+00	 4.563E+02	 3.200E+00	 5.989E-01	-6.691E+00	-7.914E+00	 5.447E+00	 3.953E+01	-1.089E-01	 2.302E-01	 2.638E+00	 1.623E-01	 1.269E-02	 9.396E-02	 1.413E-02	 1.046E-04	-5.130E+00
  69.496	 1.732E+01	 1.644E+00	 3.164E+00	 3.392E+00	 4.563E+02	 3.205E+00	 4.402E-01	-2.976E+01	-7.920E+00	 5.733E+00	 3.956E+01	-2.438E-02	 2.566E-01	 2.600E+00	 1.619E-01	 1.538E-02	 9.374E-02	 1.410E-02	 7.689E-05	-5.113E+00
  69.504	 1.725E+01	 1.116E+00	 3.326E+00	 3.250E+00	 4.564E+02	 3.207E+00	 1.926E-01	-2.785E+01	-7.926E+00	 5.954E+00	 3.960E+01	 6.321E-02	 2.834E-01	 2.586E+00	 1.619E-01	 1.332E-02	 9.472E-02	 1.419E-02	 3.363E-05	-5.128E+00
  69.512	 1.711E+01	 1.399E+00	 3.445E+00	 3.072E+00	 4.565E+02	 3.208E+00	 5.267E-02	-5.393E+00	-7.931E+00	 6.110E+00	 3.963E+01	 1.322E-01	 3.090E-01	 2.592E+00	 1.616E-01	 9.267E-03	 9.694E-02	 1.440E-02	 9.254E-06	-5.152E+00
  69.520	 1.697E+01	 2.129E+00	 3.506E+00	 2.879E+00	 4.565E+02	 3.209E+00	 8.438E-02	 8.448E+00	-7.936E+00	 6.269E+00	 3.965E+01	 1.701E-01	 3.336E-01	 2.592E+00	 1.611E-01	 9.080E-03	 9.923E-02	 1.462E-02	 1.472E-05	-5.159E+00
  69.528	 1.683E+01	 2.755E+00	 3.506E+00	 2.580E+00	 4.565E+02	 3.209E+00	 9.830E-02	-9.115E+00	-7.942E+00	 6.432E+00	 3.964E+01	 1.709E-01	 3.484E-01	 2.535E+00	 1.611E-01	 1.429E-02	 1.016E-01	 1.485E-02	 1.714E-05	-5.126E+00
  69.536	 1.669E+01	 3.077E+00	 3.443E+00	 1.984E+00	 4.566E+02	 3.210E+00	-9.616E-02	-3.916E+01	-7.949E+00	 6.598E+00	 3.963E+01	 1.339E-01	 3.443E-01	 2.471E+00	 1.607E-01	 1.868E-02	 1.040E-01	 1.508E-02	-1.679E-05	-5.086E+00
  69.544	 1.655E+01	 3.254E+00	 3.323E+00	 1.307E+00	 4.566E+02	 3.207E+00	-4.832E-01	-5.291E+01	-7.954E+00	 6.765E+00	 3.963E+01	 7.453E-02	 3.298E-01	 2.475E+00	 1.605E-01	 1.893E-02	 1.066E-01	 1.532E-02	-8.425E-05	-5.100E+00
  69.552	 1.643E+01	 3.395E+00	 3.160E+00	 1.159E+00	 4.566E+02	 3.202E+00	-8.580E-01	-3.532E+01	-7.957E+00	 6.808E+00	 3.962E+01	 4.325E-03	 3.137E-01	 2.507E+00	 1.605E-01	 1.530E-02	 1.088E-01	 1.552E-02	-1.497E-04	-5.145E+00
  69.560	 1.638E+01	 3.485E+00	 2.971E+00	 1.775E+00	 4.566E+02	 3.194E+00	-1.003E+00	-2.483E+00	-7.959E+00	 6.479E+00	 3.960E+01	-6.941E-02	 2.946E-01	 2.529E+00	 1.602E-01	 1.124E-02	 1.099E-01	 1.562E-02	-1.752E-04	-5.164E+00
  69.568	 1.633E+01	 3.514E+00	 2.764E+00	 2.488E+00	 4.566E+02	 3.186E+00	-9.777E-01	 2.251E+00	-7.961E+00	 6.148E+00	 3.958E+01	-1.338E-01	 2.599E-01	 2.514E+00	 1.602E-01	 1.256E-02	 1.109E-01	 1.572E-02	-1.707E-04	-5.137E+00
  69.576	 1.628E+01	 3.480E+00	 2.297E+00	 2.967E+00	 4.567E+02	 3.178E+00	-1.050E+00	-2.354E+01	-7.965E+00	 5.816E+00	 3.956E+01	-1.837E-01	 2.179E-01	 2.486E+00	 1.601E-01	 1.681E-02	 1.121E-01	 1.582E-02	-1.834E-04	-5.088E+00
  69.584	 1.624E+01	 3.386E+00	 1.614E+00	 3.173E+00	 4.567E+02	 3.169E+00	-1.345E+00	-4.608E+01	-7.967E+00	 5.481E+00	 3.956E+01	-2.184E-01	 1.950E-01	 2.511E+00	 1.599E-01	 1.830E-02	 1.132E-01	 1.592E-02	-2.350E-04	-5.084E+00
  69.592	 1.619E+01	 3.242E+00	 1.113E+00	 3.333E+00	 4.567E+02	 3.157E+00	-1.710E+00	-4.140E+01	-7.969E+00	 5.142E+00	 3.956E+01	-2.332E-01	 1.963E-01	 2.562E+00	 1.599E-01	 1.680E-02	 1.143E-01	 1.602E-02	-2.985E-04	-5.127E+00
  69.600	 1.615E+01	 3.062E+00	 1.434E+00	 3.449E+00	 4.567E+02	 3.142E+00	-1.977E+00	-2.614E+01	-7.969E+00	 4.799E+00	 3.956E+01	-2.227E-01	 2.049E-01	 2.590E+00	 1.598E-01	 1.636E-02	 1.155E-01	 1.613E-02	-3.451E-04	-5.163E+00
  69.608	 1.620E+01	 2.870E+00	 2.167E+00	 3.507E+00	 4.568E+02	 3.125E+00	-2.160E+00	-2.245E+01	-7.968E+00	 4.513E+00	 3.958E+01	-1.817E-01	 2.116E-01	 2.586E+00	 1.597E-01	 1.719E-02	 1.144E-01	 1.602E-02	-3.771E-04	-5.164E+00
  69.616	 1.625E+01	 2.556E+00	 2.780E+00	 3.503E+00	 4.568E+02	 3.107E+00	-2.376E+00	-3.310E+01	-7.967E+00	 4.227E+00	 3.961E+01	-1.123E-01	 2.248E-01	 2.562E+00	 1.598E-01	 1.891E-02	 1.133E-01	 1.591E-02	-4.145E-04	-5.135E+00
  69.624	 1.631E+01	 1.948E+00	 3.086E+00	 3.437E+00	 4.569E+02	 3.087E+00	-2.707E+00	-4.852E+01	-7.965E+00	 3.943E+00	 3.963E+01	-2.760E-02	 2.525E-01	 2.545E+00	 1.595E-01	 1.958E-02	 1.122E-01	 1.581E-02	-4.724E-04	-5.114E+00
  69.632	 1.636E+01	 1.280E+00	 3.262E+00	 3.316E+00	 4.569E+02	 3.064E+00	-3.098E+00	-4.546E+01	-7.962E+00	 3.659E+00	 3.965E+01	 5.761E-02	 2.845E-01	 2.554E+00	 1.594E-01	 1.792E-02	 1.111E-01	 1.570E-02	-5.408E-04	-5.134E+00
  69.640	 1.641E+01	 1.179E+00	 3.401E+00	 3.150E+00	 4.569E+02	 3.038E+00	-3.385E+00	-2.401E+01	-7.957E+00	 3.375E+00	 3.967E+01	 1.265E-01	 3.045E-01	 2.552E+00	 1.594E-01	 1.434E-02	 1.101E-01	 1.560E-02	-5.909E-04	-5.158E+00
  69.648	 1.647E+01	 1.815E+00	 3.488E+00	 2.961E+00	 4.569E+02	 3.010E+00	-3.484E+00	-2.587E+00	-7.952E+00	 3.093E+00	 3.970E+01	 1.650E-01	 3.204E-01	 2.559E+00	 1.592E-01	 1.151E-02	 1.090E-01	 1.550E-02	-6.081E-04	-5.164E+00
  69.656	 1.647E+01	 2.522E+00	 3.513E+00	 2.747E+00	 4.570E+02	 2.982E+00	-3.479E+00	 1.040E+00	-7.947E+00	 3.005E+00	 3.971E+01	 1.655E-01	 3.396E-01	 2.569E+00	 1.592E-01	 1.231E-02	 1.088E-01	 1.547E-02	-5.924E-03	-5.152E+00
  69.664	 1.647E+01	 2.983E+00	 3.476E+00	 2.263E+00	 4.570E+02	 2.954E+00	-3.507E+00	-9.340E+00	-7.944E+00	 2.980E+00	 3.971E+01	 1.288E-01	 3.492E-01	 2.553E+00	 1.592E-01	 1.444E-02	 1.089E-01	 1.548E-02	-1.420E-02	-5.126E+00
  69.672	 1.646E+01	 3.182E+00	 3.379E+00	 1.574E+00	 4.570E+02	 2.926E+00	-3.601E+00	-1.095E+01	-7.940E+00	 2.956E+00	 3.971E+01	 7.081E-02	 3.417E-01	 2.555E+00	 1.590E-01	 1.451E-02	 1.090E-01	 1.548E-02	-2.265E-02	-5.124E+00
  69.680	 1.645E+01	 3.341E+00	 3.233E+00	 1.104E+00	 4.571E+02	 2.897E+00	-3.643E+00	 1.377E+00	-7.937E+00	 2.932E+00	 3.970E+01	 6.086E-03	 3.238E-01	 2.581E+00	 1.590E-01	 1.300E-02	 1.091E-01	 1.549E-02	-3.128E-02	-5.148E+00
  69.688	 1.644E+01	 3.454E+00	 3.051E+00	 1.471E+00	 4.571E+02	 2.868E+00	-3.564E+00	 1.892E+01	-7.934E+00	 2.908E+00	 3.970E+01	-5.934E-02	 3.042E-01	 2.622E+00	 1.589E-01	 1.211E-02	 1.091E-01	 1.549E-02	-3.984E-02	-5.182E+00
  69.696	 1.644E+01	 3.509E+00	 2.859E+00	 2.207E+00	 4.571E+02	 2.840E+00	-3.348E+00	 3.324E+01	-7.932E+00	 2.886E+00	 3.968E+01	-1.202E-01	 2.799E-01	 2.629E+00	 1.588E-01	 1.244E-02	 1.092E-01	 1.549E-02	-4.803E-02	-5.199E+00
  69.704	 1.642E+01	 3.502E+00	 2.527E+00	 2.807E+00	 4.572E+02	 2.814E+00	-3.058E+00	 3.833E+01	-7.932E+00	 2.898E+00	 3.966E+01	-1.698E-01	 2.445E-01	 2.576E+00	 1.588E-01	 1.386E-02	 1.093E-01	 1.550E-02	-5.559E-02	-5.173E+00
  69.712	 1.641E+01	 3.432E+00	 1.905E+00	 3.097E+00	 4.572E+02	 2.791E+00	-2.749E+00	 3.853E+01	-7.935E+00	 2.944E+00	 3.964E+01	-2.054E-01	 2.093E-01	 2.512E+00	 1.586E-01	 1.402E-02	 1.095E-01	 1.551E-02	-6.243E-02	-5.133E+00
  69.720	 1.640E+01	 3.307E+00	 1.246E+00	 3.272E+00	 4.572E+02	 2.770E+00	-2.444E+00	 3.752E+01	-7.939E+00	 2.992E+00	 3.963E+01	-2.248E-01	 1.917E-01	 2.532E+00	 1.586E-01	 1.300E-02	 1.096E-01	 1.552E-02	-6.854E-02	-5.130E+00
  69.728	 1.638E+01	 3.140E+00	 1.201E+00	 3.408E+00	 4.573E+02	 2.752E+00	-2.141E+00	 3.998E+01	-7.946E+00	 3.042E+00	 3.963E+01	-2.284E-01	 1.908E-01	 2.600E+00	 1.584E-01	 1.222E-02	 1.097E-01	 1.553E-02	-7.393E-02	-5.161E+00
  69.736	 1.637E+01	 2.949E+00	 1.861E+00	 3.491E+00	 4.573E+02	 2.736E+00	-1.784E+00	 4.809E+01	-7.955E+00	 3.095E+00	 3.964E+01	-2.135E-01	 1.982E-01	 2.630E+00	 1.583E-01	 1.291E-02	 1.099E-01	 1.554E-02	-7.854E-02	-5.193E+00
  69.744	 1.635E+01	 2.725E+00	 2.560E+00	 3.514E+00	 4.573E+02	 2.724E+00	-1.423E+00	 3.823E+01	-7.966E+00	 3.150E+00	 3.968E+01	-1.682E-01	 2.040E-01	 2.561E+00	 1.583E-01	 1.791E-02	 1.100E-01	 1.555E-02	-8.227E-02	-5.180E+00
  69.752	 1.634E+01	 2.221E+00	 3.002E+00	 3.472E+00	 4.573E+02	 2.713E+00	-1.208E+00	 1.488E+01	-7.980E+00	 3.160E+00	 3.973E+01	-9.471E-02	 2.182E-01	 2.460E+00	 1.581E-01	 2.299E-02	 1.103E-01	 1.557E-02	-8.532E-02	-5.135E+00
  69.760	 1.631E+01	 1.527E+00	 3.195E+00	 3.372E+00	 4.574E+02	 2.704E+00	-1.156E+00	 6.251E-01	-7.994E+00	 3.030E+00	 3.977E+01	-5.760E-03	 2.571E-01	 2.455E+00	 1.580E-01	 2.457E-02	 1.109E-01	 1.563E-02	-8.809E-02	-5.124E+00
  69.768	 1.627E+01	 1.099E+00	 3.351E+00	 3.221E+00	 4.574E+02	 2.695E+00	-1.160E+00	 6.864E-01	-8.008E+00	 2.899E+00	 3.981E+01	 8.503E-02	 3.089E-01	 2.537E+00	 1.579E-01	 2.343E-02	 1.116E-01	 1.569E-02	-9.084E-02	-5.158E+00
  69.776	 1.624E+01	 1.517E+00	 3.461E+00	 3.038E+00	 4.574E+02	 2.685E+00	-1.103E+00	 1.593E+01	-8.022E+00	 2.768E+00	 3.983E+01	 1.654E-01	 3.526E-01	 2.603E+00	 1.578E-01	 2.181E-02	 1.123E-01	 1.575E-02	-9.354E-02	-5.203E+00
  69.784	 1.621E+01	 2.255E+00	 3.512E+00	 2.845E+00	 4.574E+02	 2.677E+00	-9.080E-01	 3.013E+01	-8.037E+00	 2.637E+00	 3.982E+01	 2.158E-01	 3.753E-01	 2.561E+00	 1.578E-01	 2.303E-02	 1.130E-01	 1.581E-02	-9.592E-02	-5.200E+00
  69.792	 1.618E+01	 2.838E+00	 3.500E+00	 2.491E+00	 4.574E+02	 2.671E+00	-6.843E-01	 2.176E+01	-8.054E+00	 2.507E+00	 3.979E+01	 2.131E-01	 3.766E-01	 2.462E+00	 1.577E-01	 2.668E-02	 1.137E-01	 1.587E-02	-9.775E-02	-5.133E+00
  69.800	 1.615E+01	 3.111E+00	 3.425E+00	 1.855E+00	 4.574E+02	 2.666E+00	-6.219E-01	-7.441E+00	-8.072E+00	 2.377E+00	 3.976E+01	 1.600E-01	 3.606E-01	 2.428E+00	 1.576E-01	 2.953E-02	 1.144E-01	 1.594E-02	-9.925E-02	-5.086E+00
  69.808	 1.615E+01	 3.284E+00	 3.296E+00	 1.215E+00	 4.575E+02	 2.660E+00	-7.962E-01	-3.359E+01	-8.089E+00	 2.633E+00	 3.974E+01	 7.388E-02	 3.369E-01	 2.514E+00	 1.575E-01	 3.135E-02	 1.141E-01	 1.591E-02	-1.009E-01	-5.123E+00
  69.816	 1.616E+01	 3.417E+00	 3.125E+00	 1.235E+00	 4.575E+02	 2.653E+00	-1.087E+00	-3.271E+01	-8.105E+00	 2.886E+00	 3.972E+01	-1.753E-02	 3.021E-01	 2.590E+00	 1.573E-01	 3.199E-02	 1.138E-01	 1.588E-02	-1.032E-01	-5.196E+00
  69.824	 1.616E+01	 3.496E+00	 2.933E+00	 1.915E+00	 4.575E+02	 2.643E+00	-1.237E+00	-3.646E+00	-8.118E+00	 3.137E+00	 3.971E+01	-9.930E-02	 2.539E-01	 2.566E+00	 1.574E-01	 3.144E-02	 1.135E-01	 1.585E-02	-1.060E-01	-5.225E+00
  69.832	 1.617E+01	 3.514E+00	 2.698E+00	 2.602E+00	 4.575E+02	 2.634E+00	-1.197E+00	 7.831E+00	-8.132E+00	 3.388E+00	 3.970E+01	-1.691E-01	 1.957E-01	 2.453E+00	 1.574E-01	 3.406E-02	 1.132E-01	 1.582E-02	-1.089E-01	-5.171E+00
  69.840	 1.618E+01	 3.467E+00	 2.174E+00	 3.021E+00	 4.575E+02	 2.624E+00	-1.178E+00	-4.810E+00	-8.145E+00	 3.639E+00	 3.969E+01	-2.251E-01	 1.496E-01	 2.377E+00	 1.572E-01	 3.580E-02	 1.129E-01	 1.579E-02	-1.117E-01	-5.099E+00
  69.848	 1.618E+01	 3.362E+00	 1.481E+00	 3.208E+00	 4.575E+02	 2.614E+00	-1.241E+00	-8.862E+00	-8.159E+00	 3.889E+00	 3.969E+01	-2.683E-01	 1.335E-01	 2.415E+00	 1.571E-01	 3.192E-02	 1.127E-01	 1.576E-02	-1.146E-01	-5.094E+00
  69.856	 1.616E+01	 3.209E+00	 1.104E+00	 3.362E+00	 4.574E+02	 2.604E+00	-1.296E+00	-4.143E+00	-8.171E+00	 4.202E+00	 3.970E+01	-2.857E-01	 1.368E-01	 2.477E+00	 1.569E-01	 2.923E-02	 1.130E-01	 1.579E-02	-1.176E-01	-5.144E+00
  69.864	 1.613E+01	 3.024E+00	 1.570E+00	 3.467E+00	 4.574E+02	 2.594E+00	-1.295E+00	 4.614E+00	-8.184E+00	 4.537E+00	 3.971E+01	-2.644E-01	 1.518E-01	 2.479E+00	 1.571E-01	 3.110E-02	 1.135E-01	 1.584E-02	-1.207E-01	-5.186E+00
  69.872	 1.610E+01	 2.831E+00	 2.306E+00	 3.513E+00	 4.574E+02	 2.584E+00	-1.243E+00	 5.818E+00	-8.196E+00	 4.873E+00	 3.974E+01	-1.998E-01	 1.725E-01	 2.420E+00	 1.571E-01	 3.540E-02	 1.140E-01	 1.589E-02	-1.237E-01	-5.174E+00
  69.880	 1.608E+01	 2.454E+00	 2.869E+00	 3.496E+00	 4.574E+02	 2.574E+00	-1.223E+00	-3.317E-01	-8.209E+00	 5.210E+00	 3.976E+01	-1.040E-01	 1.995E-01	 2.361E+00	 1.570E-01	 3.747E-02	 1.146E-01	 1.594E-02	-1.266E-01	-5.131E+00
  69.888	 1.605E+01	 1.806E+00	 3.126E+00	 3.418E+00	 4.574E+02	 2.564E+00	-1.219E+00	 4.764E+00	-8.221E+00	 5.548E+00	 3.978E+01	 1.779E-03	 2.404E-01	 2.357E+00	 1.570E-01	 3.357E-02	 1.151E-01	 1.599E-02	-1.295E-01	-5.119E+00
  69.896	 1.602E+01	 1.187E+00	 3.296E+00	 3.286E+00	 4.574E+02	 2.555E+00	-1.114E+00	 2.231E+01	-8.233E+00	 5.888E+00	 3.979E+01	 9.366E-02	 2.896E-01	 2.399E+00	 1.568E-01	 2.874E-02	 1.157E-01	 1.604E-02	-1.323E-01	-5.151E+00
  69.904	 1.599E+01	 1.271E+00	 3.425E+00	 3.113E+00	 4.573E+02	 2.547E+00	-8.675E-01	 3.862E+01	-8.246E+00	 6.132E+00	 3.979E+01	 1.590E-01	 3.317E-01	 2.415E+00	 1.570E-01	 2.777E-02	 1.162E-01	 1.610E-02	-1.347E-01	-5.172E+00
  69.912	 1.596E+01	 1.967E+00	 3.499E+00	 2.921E+00	 4.573E+02	 2.541E+00	-5.302E-01	 4.207E+01	-8.260E+00	 6.280E+00	 3.978E+01	 1.904E-01	 3.579E-01	 2.401E+00	 1.571E-01	 2.927E-02	 1.169E-01	 1.615E-02	-1.363E-01	-5.156E+00
  69.920	 1.594E+01	 2.641E+00	 3.512E+00	 2.674E+00	 4.573E+02	 2.538E+00	-2.568E-01	 2.403E+01	-8.277E+00	 6.431E+00	 3.977E+01	 1.871E-01	 3.700E-01	 2.381E+00	 1.571E-01	 3.269E-02	 1.175E-01	 1.621E-02	-1.371E-01	-5.129E+00
  69.928	 1.591E+01	 3.036E+00	 3.462E+00	 2.131E+00	 4.573E+02	 2.537E+00	-1.306E-01	 1.082E+01	-8.294E+00	 6.583E+00	 3.975E+01	 1.620E-01	 3.660E-01	 2.380E+00	 1.572E-01	 3.321E-02	 1.181E-01	 1.627E-02	-1.375E-01	-5.129E+00
  69.936	 1.588E+01	 3.220E+00	 3.353E+00	 1.437E+00	 4.573E+02	 2.536E+00	-1.979E-02	 1.927E+01	-8.312E+00	 6.736E+00	 3.974E+01	 1.195E-01	 3.474E-01	 2.413E+00	 1.571E-01	 3.062E-02	 1.187E-01	 1.633E-02	-1.377E-01	-5.161E+00
  69.944	 1.585E+01	 3.370E+00	 3.197E+00	 1.109E+00	 4.572E+02	 2.536E+00	 1.860E-01	 3.140E+01	-8.330E+00	 6.889E+00	 3.972E+01	 5.845E-02	 3.162E-01	 2.450E+00	 1.572E-01	 2.991E-02	 1.194E-01	 1.639E-02	-1.375E-01	-5.189E+00
  69.952	 1.583E+01	 3.472E+00	 3.011E+00	 1.616E+00	 4.572E+02	 2.539E+00	 4.718E-01	 3.805E+01	-8.349E+00	 7.092E+00	 3.968E+01	-2.290E-02	 2.733E-01	 2.461E+00	 1.574E-01	 3.041E-02	 1.198E-01	 1.643E-02	-1.367E-01	-5.184E+00
  69.960	 1.584E+01	 3.514E+00	 2.817E+00	 2.350E+00	 4.572E+02	 2.544E+00	 7.454E-01	 2.857E+01	-8.370E+00	 7.439E+00	 3.966E+01	-1.158E-01	 2.219E-01	 2.434E+00	 1.574E-01	 3.211E-02	 1.196E-01	 1.641E-02	-1.352E-01	-5.159E+00
  69.968	 1.586E+01	 3.494E+00	 2.418E+00	 2.894E+00	 4.572E+02	 2.551E+00	 9.350E-01	 2.075E+01	-8.393E+00	 7.785E+00	 3.963E+01	-1.991E-01	 1.758E-01	 2.394E+00	 1.574E-01	 3.201E-02	 1.193E-01	 1.639E-02	-1.331E-01	-5.133E+00
  69.976	 1.587E+01	 3.411E+00	 1.760E+00	 3.137E+00	 4.572E+02	 2.559E+00	 1.096E+00	 1.967E+01	-8.416E+00	 8.133E+00	 3.962E+01	-2.612E-01	 1.449E-01	 2.374E+00	 1.572E-01	 2.956E-02	 1.191E-01	 1.637E-02	-1.307E-01	-5.121E+00
  69.984	 1.589E+01	 3.275E+00	 1.163E+00	 3.305E+00	 4.572E+02	 2.568E+00	 1.201E+00	 2.641E+00	-8.440E+00	 8.480E+00	 3.963E+01	-2.897E-01	 1.286E-01	 2.399E+00	 1.573E-01	 3.219E-02	 1.189E-01	 1.635E-02	-1.279E-01	-5.133E+00
  69.992	 1.590E+01	 3.100E+00	 1.307E+00	 3.432E+00	 4.571E+02	 2.578E+00	 1.123E+00	-1.851E+01	-8.464E+00	 8.828E+00	 3.965E+01	-2.850E-01	 1.249E-01	 2.421E+00	 1.574E-01	 3.689E-02	 1.186E-01	 1.633E-02	-1.251E-01	-5.161E+00
  70.000	 1.592E+01	 2.907E+00	 2.016E+00	 3.503E+00	 4.571E+02	 2.586E+00	 9.715E-01	-1.680E+01	-8.487E+00	 9.173E+00	 3.967E+01	-2.473E-01	 1.399E-01	 2.422E+00	 1.575E-01	 3.822E-02	 1.184E-01	 1.631E-02	-1.227E-01	-5.190E+00
