
 **************************************************************************************************
 BeamDyn Driver

 Copyright (C) 2020 National Renewable Energy Laboratory
 Copyright (C) 2020 Envision Energy USA LTD

 This program is licensed under Apache License Version 2.0 and comes with ABSOLUTELY NO WARRANTY.
 See the "LICENSE" file distributed with this software for details.
 **************************************************************************************************

  Running BeamDyn Driver a part of OpenFAST - -128-NOTFOUND
  linked with NWTC Subroutine Library

 Running BeamDyn.
 Nodal outputs section of BeamDyn input file not found or improperly formatted.
  Time: 0 of 30 seconds.
                                                                                                   Time: 1 of 30 seconds.  Estimated final completion at 11:35:48.                                                                                                                                     Time: 2 of 30 seconds.  Estimated final completion at 11:35:48.                                                                                                                                     Time: 3 of 30 seconds.  Estimated final completion at 11:35:48.                                                                                                                                     Time: 4 of 30 seconds.  Estimated final completion at 11:35:48.                                                                                                                                     Time: 5 of 30 seconds.  Estimated final completion at 11:35:50.                                                                                                                                     Time: 6 of 30 seconds.  Estimated final completion at 11:35:50.                                                                                                                                     Time: 7 of 30 seconds.  Estimated final completion at 11:35:50.                                                                                                                                     Time: 8 of 30 seconds.  Estimated final completion at 11:35:50.                                                                                                                                     Time: 9 of 30 seconds.  Estimated final completion at 11:35:49.                                                                                                                                     Time: 10 of 30 seconds.  Estimated final completion at 11:35:49.                                                                                                                                    Time: 11 of 30 seconds.  Estimated final completion at 11:35:49.                                                                                                                                    Time: 12 of 30 seconds.  Estimated final completion at 11:35:49.                                                                                                                                    Time: 13 of 30 seconds.  Estimated final completion at 11:35:48.                                                                                                                                    Time: 14 of 30 seconds.  Estimated final completion at 11:35:48.                                                                                                                                    Time: 15 of 30 seconds.  Estimated final completion at 11:35:48.                                                                                                                                    Time: 16 of 30 seconds.  Estimated final completion at 11:35:48.                                                                                                                                    Time: 17 of 30 seconds.  Estimated final completion at 11:35:48.                                                                                                                                    Time: 18 of 30 seconds.  Estimated final completion at 11:35:48.                                                                                                                                    Time: 19 of 30 seconds.  Estimated final completion at 11:35:48.                                                                                                                                    Time: 20 of 30 seconds.  Estimated final completion at 11:35:48.                                                                                                                                    Time: 21 of 30 seconds.  Estimated final completion at 11:35:48.                                                                                                                                    Time: 22 of 30 seconds.  Estimated final completion at 11:35:48.                                                                                                                                    Time: 23 of 30 seconds.  Estimated final completion at 11:35:48.                                                                                                                                    Time: 24 of 30 seconds.  Estimated final completion at 11:35:48.                                                                                                                                    Time: 25 of 30 seconds.  Estimated final completion at 11:35:48.                                                                                                                                    Time: 26 of 30 seconds.  Estimated final completion at 11:35:48.                                                                                                                                    Time: 27 of 30 seconds.  Estimated final completion at 11:35:48.                                                                                                                                    Time: 28 of 30 seconds.  Estimated final completion at 11:35:48.                                                                                                                                    Time: 29 of 30 seconds.  Estimated final completion at 11:35:48.                                                                                                                                    Time: 30 of 30 seconds.  Estimated final completion at 11:35:48.                                                                                                                                   
  Total Real Time:       7.168 seconds
  Total CPU Time:        7.0026 seconds
  Simulation CPU Time:   6.9577 seconds
  Simulated Time:        30.01 seconds
  Time Ratio (Sim/CPU):  4.3132

  Program terminated normally.

