
This summary file was generated by HydroDyn  on 08-Apr-2025 at 16:22:59.

WAMIT Model - Body    1
------------------
  Displaced volume (m^3)                 :     2.020635E+04
  X-offset of the center of buoyancy (m) :     0.000000E+00
  Y-offset of the center of buoyancy (m) :     0.000000E+00


  Buoyancy loads from members modelled with WAMIT, summed about ( 0.0, 0.0, 0.0 )
                                BuoyFxi               BuoyFyi               BuoyFzi               BuoyMxi               BuoyMyi               BuoyMzi 
                                  (N)                   (N)                   (N)                  (N-m)                 (N-m)                 (N-m)  
  External:                 0.000000E+00          0.000000E+00          2.031105E+08          0.000000E+00         -0.000000E+00          0.000000E+00



Radiation memory effect kernel



      n           t                   K11               K12               K13               K14               K15               K16               K21               K22               K23               K24               K25               K26               K31               K32               K33               K34               K35               K36               K41               K42               K43               K44               K45               K46               K51               K52               K53               K54               K55               K56               K61               K62               K63               K64               K65               K66
     (-)         (s)            (kg/s^2)          (kg/s^2)          (kg/s^2)         (kgm/s^2)         (kgm/s^2)         (kgm/s^2)          (kg/s^2)          (kg/s^2)          (kg/s^2)         (kgm/s^2)         (kgm/s^2)         (kgm/s^2)          (kg/s^2)          (kg/s^2)          (kg/s^2)         (kgm/s^2)         (kgm/s^2)         (kgm/s^2)         (kgm/s^2)         (kgm/s^2)         (kgm/s^2)        (kgm^2/s^2)       (kgm^2/s^2)       (kgm^2/s^2)        (kgm/s^2)         (kgm/s^2)         (kgm/s^2)        (kgm^2/s^2)       (kgm^2/s^2)       (kgm^2/s^2)        (kgm/s^2)         (kgm/s^2)         (kgm/s^2)        (kgm^2/s^2)       (kgm^2/s^2)       (kgm^2/s^2)
          0   0.00000E+00       4.37423E+06       0.00000E+00      -5.70128E+01       0.00000E+00      -1.61391E+07       0.00000E+00       0.00000E+00       4.37458E+06       0.00000E+00       1.61408E+07       0.00000E+00       9.77941E+03      -3.96917E+00       0.00000E+00       1.27926E+06       0.00000E+00       7.53165E+02       0.00000E+00       0.00000E+00       1.62162E+07       0.00000E+00       5.78781E+08       0.00000E+00       1.02082E+05      -1.62151E+07       0.00000E+00       1.07158E+03       0.00000E+00       5.78774E+08       0.00000E+00       0.00000E+00       4.79724E+03       0.00000E+00       1.27367E+05       0.00000E+00       9.45064E+09
          1   0.25000E-01       4.36950E+06       0.00000E+00      -5.66226E+01       0.00000E+00      -1.61289E+07       0.00000E+00       0.00000E+00       4.36984E+06       0.00000E+00       1.61306E+07       0.00000E+00       9.71527E+03      -3.86728E+00       0.00000E+00       1.27888E+06       0.00000E+00       7.55260E+02       0.00000E+00       0.00000E+00       1.62054E+07       0.00000E+00       5.78603E+08       0.00000E+00       1.01486E+05      -1.62044E+07       0.00000E+00       1.07229E+03       0.00000E+00       5.78596E+08       0.00000E+00       0.00000E+00       4.76313E+03       0.00000E+00       1.26604E+05       0.00000E+00       9.44055E+09
          2   0.50000E-01       4.35531E+06       0.00000E+00      -5.54566E+01       0.00000E+00      -1.60983E+07       0.00000E+00       0.00000E+00       4.35565E+06       0.00000E+00       1.60999E+07       0.00000E+00       9.52361E+03      -3.56284E+00       0.00000E+00       1.27773E+06       0.00000E+00       7.61522E+02       0.00000E+00       0.00000E+00       1.61732E+07       0.00000E+00       5.78071E+08       0.00000E+00       9.97059E+04      -1.61722E+07       0.00000E+00       1.07442E+03       0.00000E+00       5.78063E+08       0.00000E+00       0.00000E+00       4.66123E+03       0.00000E+00       1.24324E+05       0.00000E+00       9.41030E+09
          3   0.75000E-01       4.33175E+06       0.00000E+00      -5.35289E+01       0.00000E+00      -1.60474E+07       0.00000E+00       0.00000E+00       4.33208E+06       0.00000E+00       1.60489E+07       0.00000E+00       9.20673E+03      -3.05951E+00       0.00000E+00       1.27583E+06       0.00000E+00       7.71871E+02       0.00000E+00       0.00000E+00       1.61197E+07       0.00000E+00       5.77183E+08       0.00000E+00       9.67617E+04      -1.61187E+07       0.00000E+00       1.07794E+03       0.00000E+00       5.77175E+08       0.00000E+00       0.00000E+00       4.49274E+03       0.00000E+00       1.20554E+05       0.00000E+00       9.36005E+09
          4   0.10000E+00       4.29892E+06       0.00000E+00      -5.08624E+01       0.00000E+00      -1.59763E+07       0.00000E+00       0.00000E+00       4.29924E+06       0.00000E+00       1.59778E+07       0.00000E+00       8.76845E+03      -2.36333E+00       0.00000E+00       1.27317E+06       0.00000E+00       7.86179E+02       0.00000E+00       0.00000E+00       1.60450E+07       0.00000E+00       5.75943E+08       0.00000E+00       9.26882E+04      -1.60441E+07       0.00000E+00       1.08280E+03       0.00000E+00       5.75934E+08       0.00000E+00       0.00000E+00       4.25969E+03       0.00000E+00       1.15338E+05       0.00000E+00       9.29004E+09
          5   0.12500E+00       4.25699E+06       0.00000E+00      -4.74891E+01       0.00000E+00      -1.58854E+07       0.00000E+00       0.00000E+00       4.25730E+06       0.00000E+00       1.58867E+07       0.00000E+00       8.21404E+03      -1.48269E+00       0.00000E+00       1.26976E+06       0.00000E+00       8.04270E+02       0.00000E+00       0.00000E+00       1.59494E+07       0.00000E+00       5.74351E+08       0.00000E+00       8.75330E+04      -1.59486E+07       0.00000E+00       1.08893E+03       0.00000E+00       5.74341E+08       0.00000E+00       0.00000E+00       3.96489E+03       0.00000E+00       1.08738E+05       0.00000E+00       9.20061E+09
          6   0.15000E+00       4.20617E+06       0.00000E+00      -4.34496E+01       0.00000E+00      -1.57748E+07       0.00000E+00       0.00000E+00       4.20646E+06       0.00000E+00       1.57760E+07       0.00000E+00       7.55016E+03      -4.28179E-01       0.00000E+00       1.26561E+06       0.00000E+00       8.25919E+02       0.00000E+00       0.00000E+00       1.58333E+07       0.00000E+00       5.72411E+08       0.00000E+00       8.13564E+04      -1.58325E+07       0.00000E+00       1.09625E+03       0.00000E+00       5.72400E+08       0.00000E+00       0.00000E+00       3.61188E+03       0.00000E+00       1.00831E+05       0.00000E+00       9.09219E+09
          7   0.17500E+00       4.14670E+06       0.00000E+00      -3.87921E+01       0.00000E+00      -1.56449E+07       0.00000E+00       0.00000E+00       4.14697E+06       0.00000E+00       1.56460E+07       0.00000E+00       6.78480E+03       7.87510E-01       0.00000E+00       1.26073E+06       0.00000E+00       8.50855E+02       0.00000E+00       0.00000E+00       1.56970E+07       0.00000E+00       5.70124E+08       0.00000E+00       7.42305E+04      -1.56964E+07       0.00000E+00       1.10464E+03       0.00000E+00       5.70112E+08       0.00000E+00       0.00000E+00       3.20489E+03       0.00000E+00       9.17108E+04       0.00000E+00       8.96528E+09
          8   0.20000E+00       4.07887E+06       0.00000E+00      -3.35726E+01       0.00000E+00      -1.54963E+07       0.00000E+00       0.00000E+00       4.07912E+06       0.00000E+00       1.54972E+07       0.00000E+00       5.92715E+03       2.14971E+00       0.00000E+00       1.25513E+06       0.00000E+00       8.78767E+02       0.00000E+00       0.00000E+00       1.55412E+07       0.00000E+00       5.67495E+08       0.00000E+00       6.62388E+04      -1.55407E+07       0.00000E+00       1.11400E+03       0.00000E+00       5.67481E+08       0.00000E+00       0.00000E+00       2.74882E+03       0.00000E+00       8.14847E+04       0.00000E+00       8.82050E+09
          9   0.22500E+00       4.00301E+06       0.00000E+00      -2.78536E+01       0.00000E+00      -1.53291E+07       0.00000E+00       0.00000E+00       4.00324E+06       0.00000E+00       1.53299E+07       0.00000E+00       4.98755E+03       3.64200E+00       0.00000E+00       1.24882E+06       0.00000E+00       9.09304E+02       0.00000E+00       0.00000E+00       1.53662E+07       0.00000E+00       5.64527E+08       0.00000E+00       5.74746E+04      -1.53658E+07       0.00000E+00       1.12419E+03       0.00000E+00       5.64511E+08       0.00000E+00       0.00000E+00       2.24914E+03       0.00000E+00       7.02729E+04       0.00000E+00       8.65852E+09
         10   0.25000E+00       3.91949E+06       0.00000E+00      -2.17037E+01       0.00000E+00      -1.51442E+07       0.00000E+00       0.00000E+00       3.91969E+06       0.00000E+00       1.51447E+07       0.00000E+00       3.97728E+03       5.24633E+00       0.00000E+00       1.24182E+06       0.00000E+00       9.42082E+02       0.00000E+00       0.00000E+00       1.51728E+07       0.00000E+00       5.61224E+08       0.00000E+00       4.80405E+04      -1.51726E+07       0.00000E+00       1.13506E+03       0.00000E+00       5.61207E+08       0.00000E+00       0.00000E+00       1.71188E+03       0.00000E+00       5.82078E+04       0.00000E+00       8.48010E+09
         11   0.27500E+00       3.82868E+06       0.00000E+00      -1.51967E+01       0.00000E+00      -1.49419E+07       0.00000E+00       0.00000E+00       3.82886E+06       0.00000E+00       1.49422E+07       0.00000E+00       2.90852E+03       6.94332E+00       0.00000E+00       1.23414E+06       0.00000E+00       9.76685E+02       0.00000E+00       0.00000E+00       1.49615E+07       0.00000E+00       5.57591E+08       0.00000E+00       3.80465E+04      -1.49615E+07       0.00000E+00       1.14645E+03       0.00000E+00       5.57572E+08       0.00000E+00       0.00000E+00       1.14350E+03       0.00000E+00       4.54313E+04       0.00000E+00       8.28605E+09
         12   0.30000E+00       3.73103E+06       0.00000E+00      -8.41073E+00       0.00000E+00      -1.47229E+07       0.00000E+00       0.00000E+00       3.73118E+06       0.00000E+00       1.47230E+07       0.00000E+00       1.79412E+03       8.71236E+00       0.00000E+00       1.22580E+06       0.00000E+00       1.01267E+03       0.00000E+00       0.00000E+00       1.47332E+07       0.00000E+00       5.53634E+08       0.00000E+00       2.76098E+04      -1.47333E+07       0.00000E+00       1.15818E+03       0.00000E+00       5.53612E+08       0.00000E+00       0.00000E+00       5.50832E+02       0.00000E+00       3.20939E+04       0.00000E+00       8.07727E+09
         13   0.32500E+00       3.62698E+06       0.00000E+00      -1.42727E+00       0.00000E+00      -1.44879E+07       0.00000E+00       0.00000E+00       3.62710E+06       0.00000E+00       1.44877E+07       0.00000E+00       6.47513E+02       1.05320E+01       0.00000E+00       1.21680E+06       0.00000E+00       1.04958E+03       0.00000E+00       0.00000E+00       1.44885E+07       0.00000E+00       5.49356E+08       0.00000E+00       1.68520E+04      -1.44888E+07       0.00000E+00       1.17008E+03       0.00000E+00       5.49332E+08       0.00000E+00       0.00000E+00      -5.89738E+01       0.00000E+00       1.83528E+04       0.00000E+00       7.85470E+09
         14   0.35000E+00       3.51700E+06       0.00000E+00       5.66974E+00       0.00000E+00      -1.42375E+07       0.00000E+00       0.00000E+00       3.51709E+06       0.00000E+00       1.42371E+07       0.00000E+00      -5.17490E+02       1.23801E+01       0.00000E+00       1.20719E+06       0.00000E+00       1.08693E+03       0.00000E+00       0.00000E+00       1.42283E+07       0.00000E+00       5.44765E+08       0.00000E+00       5.89898E+03      -1.42288E+07       0.00000E+00       1.18195E+03       0.00000E+00       5.44739E+08       0.00000E+00       0.00000E+00      -6.78570E+02       0.00000E+00       4.36995E+03       0.00000E+00       7.61931E+09
         15   0.37500E+00       3.40159E+06       0.00000E+00       1.27950E+01       0.00000E+00      -1.39725E+07       0.00000E+00       0.00000E+00       3.40165E+06       0.00000E+00       1.39719E+07       0.00000E+00      -1.68686E+03       1.42340E+01       0.00000E+00       1.19696E+06       0.00000E+00       1.12423E+03       0.00000E+00       0.00000E+00       1.39535E+07       0.00000E+00       5.39865E+08       0.00000E+00      -5.12139E+03      -1.39541E+07       0.00000E+00       1.19361E+03       0.00000E+00       5.39837E+08       0.00000E+00       0.00000E+00      -1.30047E+03       0.00000E+00      -9.69000E+03       0.00000E+00       7.37216E+09
         16   0.40000E+00       3.28126E+06       0.00000E+00       1.98627E+01       0.00000E+00      -1.36937E+07       0.00000E+00       0.00000E+00       3.28129E+06       0.00000E+00       1.36928E+07       0.00000E+00      -2.84646E+03       1.60710E+01       0.00000E+00       1.18614E+06       0.00000E+00       1.16099E+03       0.00000E+00       0.00000E+00       1.36648E+07       0.00000E+00       5.34664E+08       0.00000E+00      -1.60803E+04      -1.36657E+07       0.00000E+00       1.20485E+03       0.00000E+00       5.34634E+08       0.00000E+00       0.00000E+00      -1.91718E+03       0.00000E+00      -2.36614E+04       0.00000E+00       7.11429E+09
         17   0.42500E+00       3.15652E+06       0.00000E+00       2.67878E+01       0.00000E+00      -1.34018E+07       0.00000E+00       0.00000E+00       3.15653E+06       0.00000E+00       1.34007E+07       0.00000E+00      -3.98234E+03       1.78686E+01       0.00000E+00       1.17474E+06       0.00000E+00       1.19671E+03       0.00000E+00       0.00000E+00       1.33633E+07       0.00000E+00       5.29167E+08       0.00000E+00      -2.68499E+04      -1.33643E+07       0.00000E+00       1.21547E+03       0.00000E+00       5.29135E+08       0.00000E+00       0.00000E+00      -2.52122E+03       0.00000E+00      -3.73796E+04       0.00000E+00       6.84680E+09
         18   0.45000E+00       3.02792E+06       0.00000E+00       3.34868E+01       0.00000E+00      -1.30977E+07       0.00000E+00       0.00000E+00       3.02789E+06       0.00000E+00       1.30963E+07       0.00000E+00      -5.08075E+03       1.96045E+01       0.00000E+00       1.16280E+06       0.00000E+00       1.23090E+03       0.00000E+00       0.00000E+00       1.30498E+07       0.00000E+00       5.23382E+08       0.00000E+00      -3.73044E+04      -1.30510E+07       0.00000E+00       1.22529E+03       0.00000E+00       5.23348E+08       0.00000E+00       0.00000E+00      -3.10529E+03       0.00000E+00      -5.06830E+04       0.00000E+00       6.57079E+09
         19   0.47500E+00       2.89596E+06       0.00000E+00       3.98787E+01       0.00000E+00      -1.27821E+07       0.00000E+00       0.00000E+00       2.89591E+06       0.00000E+00       1.27805E+07       0.00000E+00      -6.12842E+03       2.12572E+01       0.00000E+00       1.15031E+06       0.00000E+00       1.26309E+03       0.00000E+00       0.00000E+00       1.27253E+07       0.00000E+00       5.17315E+08       0.00000E+00      -4.73220E+04      -1.27266E+07       0.00000E+00       1.23409E+03       0.00000E+00       5.17279E+08       0.00000E+00       0.00000E+00      -3.66228E+03       0.00000E+00      -6.34148E+04       0.00000E+00       6.28738E+09
         20   0.50000E+00       2.76121E+06       0.00000E+00       4.58863E+01       0.00000E+00      -1.24559E+07       0.00000E+00       0.00000E+00       2.76113E+06       0.00000E+00       1.24542E+07       0.00000E+00      -7.11265E+03       2.28058E+01       0.00000E+00       1.13731E+06       0.00000E+00       1.29281E+03       0.00000E+00       0.00000E+00       1.23907E+07       0.00000E+00       5.10974E+08       0.00000E+00      -5.67856E+04      -1.23922E+07       0.00000E+00       1.24168E+03       0.00000E+00       5.10937E+08       0.00000E+00       0.00000E+00      -4.18544E+03       0.00000E+00      -7.54250E+04       0.00000E+00       5.99769E+09
         21   0.52500E+00       2.62417E+06       0.00000E+00       5.14368E+01       0.00000E+00      -1.21200E+07       0.00000E+00       0.00000E+00       2.62407E+06       0.00000E+00       1.21180E+07       0.00000E+00      -8.02155E+03       2.42310E+01       0.00000E+00       1.12381E+06       0.00000E+00       1.31962E+03       0.00000E+00       0.00000E+00       1.20469E+07       0.00000E+00       5.04365E+08       0.00000E+00      -6.55852E+04      -1.20485E+07       0.00000E+00       1.24789E+03       0.00000E+00       5.04326E+08       0.00000E+00       0.00000E+00      -4.66838E+03       0.00000E+00      -8.65721E+04       0.00000E+00       5.70284E+09
         22   0.55000E+00       2.48539E+06       0.00000E+00       5.64627E+01       0.00000E+00      -1.17752E+07       0.00000E+00       0.00000E+00       2.48526E+06       0.00000E+00       1.17731E+07       0.00000E+00      -8.84402E+03       2.55143E+01       0.00000E+00       1.10983E+06       0.00000E+00       1.34310E+03       0.00000E+00       0.00000E+00       1.16949E+07       0.00000E+00       4.97497E+08       0.00000E+00      -7.36180E+04      -1.16967E+07       0.00000E+00       1.25253E+03       0.00000E+00       4.97455E+08       0.00000E+00       0.00000E+00      -5.10520E+03       0.00000E+00      -9.67246E+04       0.00000E+00       5.40393E+09
         23   0.57500E+00       2.34536E+06       0.00000E+00       6.09029E+01       0.00000E+00      -1.14223E+07       0.00000E+00       0.00000E+00       2.34521E+06       0.00000E+00       1.14200E+07       0.00000E+00      -9.57011E+03       2.66393E+01       0.00000E+00       1.09538E+06       0.00000E+00       1.36288E+03       0.00000E+00       0.00000E+00       1.13357E+07       0.00000E+00       4.90374E+08       0.00000E+00      -8.07907E+04      -1.13376E+07       0.00000E+00       1.25543E+03       0.00000E+00       4.90332E+08       0.00000E+00       0.00000E+00      -5.49051E+03       0.00000E+00      -1.05763E+05       0.00000E+00       5.10203E+09
         24   0.60000E+00       2.20459E+06       0.00000E+00       6.47029E+01       0.00000E+00      -1.10622E+07       0.00000E+00       0.00000E+00       2.20443E+06       0.00000E+00       1.10599E+07       0.00000E+00      -1.01909E+04       2.75910E+01       0.00000E+00       1.08049E+06       0.00000E+00       1.37859E+03       0.00000E+00       0.00000E+00       1.09701E+07       0.00000E+00       4.83007E+08       0.00000E+00      -8.70198E+04      -1.09721E+07       0.00000E+00       1.25644E+03       0.00000E+00       4.82963E+08       0.00000E+00       0.00000E+00      -5.81958E+03       0.00000E+00      -1.13580E+05       0.00000E+00       4.79822E+09
         25   0.62500E+00       2.06357E+06       0.00000E+00       6.78160E+01       0.00000E+00      -1.06958E+07       0.00000E+00       0.00000E+00       2.06339E+06       0.00000E+00       1.06933E+07       0.00000E+00      -1.06988E+04       2.83565E+01       0.00000E+00       1.06516E+06       0.00000E+00       1.38993E+03       0.00000E+00       0.00000E+00       1.05991E+07       0.00000E+00       4.75401E+08       0.00000E+00      -9.22331E+04      -1.06012E+07       0.00000E+00       1.25541E+03       0.00000E+00       4.75356E+08       0.00000E+00       0.00000E+00      -6.08827E+03       0.00000E+00      -1.20085E+05       0.00000E+00       4.49350E+09
         26   0.65000E+00       1.92276E+06       0.00000E+00       7.02034E+01       0.00000E+00      -1.03239E+07       0.00000E+00       0.00000E+00       1.92256E+06       0.00000E+00       1.03213E+07       0.00000E+00      -1.10875E+04       2.89248E+01       0.00000E+00       1.04941E+06       0.00000E+00       1.39664E+03       0.00000E+00       0.00000E+00       1.02236E+07       0.00000E+00       4.67564E+08       0.00000E+00      -9.63702E+04      -1.02257E+07       0.00000E+00       1.25222E+03       0.00000E+00       4.67518E+08       0.00000E+00       0.00000E+00      -6.29323E+03       0.00000E+00      -1.25199E+05       0.00000E+00       4.18886E+09
         27   0.67500E+00       1.78259E+06       0.00000E+00       7.18350E+01       0.00000E+00      -9.94720E+06       0.00000E+00       0.00000E+00       1.78239E+06       0.00000E+00       9.94458E+06       0.00000E+00      -1.13522E+04       2.92874E+01       0.00000E+00       1.03325E+06       0.00000E+00       1.39847E+03       0.00000E+00       0.00000E+00       9.84432E+06       0.00000E+00       4.59502E+08       0.00000E+00      -9.93833E+04      -9.84647E+06       0.00000E+00       1.24675E+03       0.00000E+00       4.59456E+08       0.00000E+00       0.00000E+00      -6.43180E+03       0.00000E+00      -1.28864E+05       0.00000E+00       3.88524E+09
         28   0.70000E+00       1.64350E+06       0.00000E+00       7.26897E+01       0.00000E+00      -9.56662E+06       0.00000E+00       0.00000E+00       1.64328E+06       0.00000E+00       9.56396E+06       0.00000E+00      -1.14894E+04       2.94379E+01       0.00000E+00       1.01671E+06       0.00000E+00       1.39528E+03       0.00000E+00       0.00000E+00       9.46220E+06       0.00000E+00       4.51224E+08       0.00000E+00      -1.01238E+05      -9.46436E+06       0.00000E+00       1.23890E+03       0.00000E+00       4.51178E+08       0.00000E+00       0.00000E+00      -6.50213E+03       0.00000E+00      -1.31035E+05       0.00000E+00       3.58353E+09
         29   0.72500E+00       1.50586E+06       0.00000E+00       7.27554E+01       0.00000E+00      -9.18285E+06       0.00000E+00       0.00000E+00       1.50564E+06       0.00000E+00       9.18019E+06       0.00000E+00      -1.14973E+04       2.93724E+01       0.00000E+00       9.99774E+05       0.00000E+00       1.38692E+03       0.00000E+00       0.00000E+00       9.07797E+06       0.00000E+00       4.42736E+08       0.00000E+00      -1.01913E+05      -9.08014E+06       0.00000E+00       1.22861E+03       0.00000E+00       4.42690E+08       0.00000E+00       0.00000E+00      -6.50316E+03       0.00000E+00      -1.31688E+05       0.00000E+00       3.28457E+09
         30   0.75000E+00       1.37004E+06       0.00000E+00       7.20294E+01       0.00000E+00      -8.79670E+06       0.00000E+00       0.00000E+00       1.36982E+06       0.00000E+00       8.79405E+06       0.00000E+00      -1.13757E+04       2.90894E+01       0.00000E+00       9.82473E+05       0.00000E+00       1.37332E+03       0.00000E+00       0.00000E+00       8.69242E+06       0.00000E+00       4.34046E+08       0.00000E+00      -1.01401E+05      -8.69457E+06       0.00000E+00       1.21580E+03       0.00000E+00       4.34000E+08       0.00000E+00       0.00000E+00      -6.43468E+03       0.00000E+00      -1.30813E+05       0.00000E+00       2.98913E+09
         31   0.77500E+00       1.23638E+06       0.00000E+00       7.05184E+01       0.00000E+00      -8.40883E+06       0.00000E+00       0.00000E+00       1.23616E+06       0.00000E+00       8.40623E+06       0.00000E+00      -1.11256E+04       2.85898E+01       0.00000E+00       9.64807E+05       0.00000E+00       1.35446E+03       0.00000E+00       0.00000E+00       8.30624E+06       0.00000E+00       4.25159E+08       0.00000E+00      -9.97098E+04      -8.30836E+06       0.00000E+00       1.20045E+03       0.00000E+00       4.25113E+08       0.00000E+00       0.00000E+00      -6.29726E+03       0.00000E+00      -1.28422E+05       0.00000E+00       2.69794E+09
         32   0.80000E+00       1.10519E+06       0.00000E+00       6.82384E+01       0.00000E+00      -8.01998E+06       0.00000E+00       0.00000E+00       1.10497E+06       0.00000E+00       8.01745E+06       0.00000E+00      -1.07498E+04       2.78770E+01       0.00000E+00       9.46787E+05       0.00000E+00       1.33038E+03       0.00000E+00       0.00000E+00       7.92014E+06       0.00000E+00       4.16084E+08       0.00000E+00      -9.68589E+04      -7.92219E+06       0.00000E+00       1.18254E+03       0.00000E+00       4.16039E+08       0.00000E+00       0.00000E+00      -6.09232E+03       0.00000E+00      -1.24541E+05       0.00000E+00       2.41165E+09
         33   0.82500E+00       9.76714E+05       0.00000E+00       6.52145E+01       0.00000E+00      -7.63076E+06       0.00000E+00       0.00000E+00       9.76502E+05       0.00000E+00       7.62833E+06       0.00000E+00      -1.02526E+04       2.69567E+01       0.00000E+00       9.28420E+05       0.00000E+00       1.30115E+03       0.00000E+00       0.00000E+00       7.53469E+06       0.00000E+00       4.06825E+08       0.00000E+00      -9.28830E+04      -7.53668E+06       0.00000E+00       1.16206E+03       0.00000E+00       4.06781E+08       0.00000E+00       0.00000E+00      -5.82207E+03       0.00000E+00      -1.19218E+05       0.00000E+00       2.13084E+09
         34   0.85000E+00       8.51214E+05       0.00000E+00       6.14805E+01       0.00000E+00      -7.24184E+06       0.00000E+00       0.00000E+00       8.51010E+05       0.00000E+00       7.23952E+06       0.00000E+00      -9.63960E+03       2.58373E+01       0.00000E+00       9.09712E+05       0.00000E+00       1.26691E+03       0.00000E+00       0.00000E+00       7.15054E+06       0.00000E+00       3.97391E+08       0.00000E+00      -8.78292E+04      -7.15243E+06       0.00000E+00       1.13905E+03       0.00000E+00       3.97348E+08       0.00000E+00       0.00000E+00      -5.48948E+03       0.00000E+00      -1.12514E+05       0.00000E+00       1.85605E+09
         35   0.87500E+00       7.28885E+05       0.00000E+00       5.70786E+01       0.00000E+00      -6.85377E+06       0.00000E+00       0.00000E+00       7.28693E+05       0.00000E+00       6.85160E+06       0.00000E+00      -8.91796E+03       2.45289E+01       0.00000E+00       8.90668E+05       0.00000E+00       1.22785E+03       0.00000E+00       0.00000E+00       6.76818E+06       0.00000E+00       3.87787E+08       0.00000E+00      -8.17577E+04      -6.76997E+06       0.00000E+00       1.11356E+03       0.00000E+00       3.87745E+08       0.00000E+00       0.00000E+00      -5.09826E+03       0.00000E+00      -1.04509E+05       0.00000E+00       1.58772E+09
         36   0.90000E+00       6.09910E+05       0.00000E+00       5.20592E+01       0.00000E+00      -6.46716E+06       0.00000E+00       0.00000E+00       6.09731E+05       0.00000E+00       6.46515E+06       0.00000E+00      -8.09597E+03       2.30443E+01       0.00000E+00       8.71295E+05       0.00000E+00       1.18421E+03       0.00000E+00       0.00000E+00       6.38816E+06       0.00000E+00       3.78019E+08       0.00000E+00      -7.47402E+04      -6.38981E+06       0.00000E+00       1.08564E+03       0.00000E+00       3.77979E+08       0.00000E+00       0.00000E+00      -4.65284E+03       0.00000E+00      -9.52960E+04       0.00000E+00       1.32626E+09
         37   0.92500E+00       4.94421E+05       0.00000E+00       4.64795E+01       0.00000E+00      -6.08248E+06       0.00000E+00       0.00000E+00       4.94259E+05       0.00000E+00       6.08065E+06       0.00000E+00      -7.18322E+03       2.13977E+01       0.00000E+00       8.51593E+05       0.00000E+00       1.13626E+03       0.00000E+00       0.00000E+00       6.01086E+06       0.00000E+00       3.68094E+08       0.00000E+00      -6.68598E+04      -6.01239E+06       0.00000E+00       1.05538E+03       0.00000E+00       3.68055E+08       0.00000E+00       0.00000E+00      -4.15826E+03       0.00000E+00      -8.49838E+04       0.00000E+00       1.07197E+09
         38   0.95000E+00       3.82540E+05       0.00000E+00       4.04038E+01       0.00000E+00      -5.70026E+06       0.00000E+00       0.00000E+00       3.82394E+05       0.00000E+00       5.69863E+06       0.00000E+00      -6.19031E+03       1.96057E+01       0.00000E+00       8.31570E+05       0.00000E+00       1.08432E+03       0.00000E+00       0.00000E+00       5.63676E+06       0.00000E+00       3.58018E+08       0.00000E+00      -5.82094E+04      -5.63813E+06       0.00000E+00       1.02289E+03       0.00000E+00       3.57981E+08       0.00000E+00       0.00000E+00      -3.62017E+03       0.00000E+00      -7.36939E+04       0.00000E+00       8.25125E+08
         39   0.97500E+00       2.74337E+05       0.00000E+00       3.39021E+01       0.00000E+00      -5.32091E+06       0.00000E+00       0.00000E+00       2.74211E+05       0.00000E+00       5.31950E+06       0.00000E+00      -5.12886E+03       1.76861E+01       0.00000E+00       8.11226E+05       0.00000E+00       1.02877E+03       0.00000E+00       0.00000E+00       5.26616E+06       0.00000E+00       3.47795E+08       0.00000E+00      -4.88911E+04      -5.26737E+06       0.00000E+00       9.88302E+02       0.00000E+00       3.47761E+08       0.00000E+00       0.00000E+00      -3.04471E+03       0.00000E+00      -6.15591E+04       0.00000E+00       5.85914E+08
         40   0.10000E+01       1.69873E+05       0.00000E+00       2.70494E+01       0.00000E+00      -4.94489E+06       0.00000E+00       0.00000E+00       1.69767E+05       0.00000E+00       4.94370E+06       0.00000E+00      -4.01126E+03       1.56582E+01       0.00000E+00       7.90566E+05       0.00000E+00       9.69997E+02       0.00000E+00       0.00000E+00       4.89944E+06       0.00000E+00       3.37433E+08       0.00000E+00      -3.90148E+04      -4.90048E+06       0.00000E+00       9.51748E+02       0.00000E+00       3.37401E+08       0.00000E+00       0.00000E+00      -2.43850E+03       0.00000E+00      -4.87223E+04       0.00000E+00       3.54474E+08
         41   0.10250E+01       6.91640E+04       0.00000E+00       1.99248E+01       0.00000E+00      -4.57254E+06       0.00000E+00       0.00000E+00       6.90812E+04       0.00000E+00       4.57159E+06       0.00000E+00      -2.85061E+03       1.35428E+01       0.00000E+00       7.69591E+05       0.00000E+00       9.08437E+02       0.00000E+00       0.00000E+00       4.53684E+06       0.00000E+00       3.26936E+08       0.00000E+00      -2.86969E+04      -4.53770E+06       0.00000E+00       9.13390E+02       0.00000E+00       3.26907E+08       0.00000E+00       0.00000E+00      -1.80848E+03       0.00000E+00      -3.53344E+04       0.00000E+00       1.30879E+08
         42   0.10500E+01      -2.77842E+04       0.00000E+00       1.26107E+01       0.00000E+00      -4.20426E+06       0.00000E+00       0.00000E+00      -2.78452E+04       0.00000E+00       4.20354E+06       0.00000E+00      -1.66047E+03       1.13613E+01       0.00000E+00       7.48305E+05       0.00000E+00       8.44549E+02       0.00000E+00       0.00000E+00       4.17863E+06       0.00000E+00       3.16312E+08       0.00000E+00      -1.80587E+04      -4.17930E+06       0.00000E+00       8.73403E+02       0.00000E+00       3.16285E+08       0.00000E+00       0.00000E+00      -1.16191E+03       0.00000E+00      -2.15533E+04       0.00000E+00      -8.48467E+07
         43   0.10750E+01      -1.21005E+05       0.00000E+00       5.19179E+00       0.00000E+00      -3.84031E+06       0.00000E+00       0.00000E+00      -1.21042E+05       0.00000E+00       3.83984E+06       0.00000E+00      -4.54823E+02       9.13593E+00       0.00000E+00       7.26710E+05       0.00000E+00       7.78814E+02       0.00000E+00       0.00000E+00       3.82499E+06       0.00000E+00       3.05563E+08       0.00000E+00      -7.22566E+03      -3.82548E+06       0.00000E+00       8.31973E+02       0.00000E+00       3.05540E+08       0.00000E+00       0.00000E+00      -5.06240E+02       0.00000E+00      -7.54112E+03       0.00000E+00      -2.92734E+08
         44   0.11000E+01      -2.10540E+05       0.00000E+00      -2.24610E+00       0.00000E+00      -3.48102E+06       0.00000E+00       0.00000E+00      -2.10554E+05       0.00000E+00       3.48080E+06       0.00000E+00       7.52229E+02       6.88951E+00       0.00000E+00       7.04812E+05       0.00000E+00       7.11732E+02       0.00000E+00       0.00000E+00       3.47614E+06       0.00000E+00       2.94698E+08       0.00000E+00       3.67498E+03      -3.47643E+06       0.00000E+00       7.89301E+02       0.00000E+00       2.94677E+08       0.00000E+00       0.00000E+00       1.50978E+02       0.00000E+00       6.53715E+03       0.00000E+00      -4.92860E+08
         45   0.11250E+01      -2.96465E+05       0.00000E+00      -9.61688E+00       0.00000E+00      -3.12661E+06       0.00000E+00       0.00000E+00      -2.96454E+05       0.00000E+00       3.12664E+06       0.00000E+00       1.94651E+03       4.64492E+00       0.00000E+00       6.82610E+05       0.00000E+00       6.43812E+02       0.00000E+00       0.00000E+00       3.13217E+06       0.00000E+00       2.83721E+08       0.00000E+00       1.45149E+04      -3.13228E+06       0.00000E+00       7.45596E+02       0.00000E+00       2.83702E+08       0.00000E+00       0.00000E+00       8.02171E+02       0.00000E+00       2.05157E+04       0.00000E+00      -6.85345E+08
         46   0.11500E+01      -3.78858E+05       0.00000E+00      -1.68353E+01       0.00000E+00      -2.77735E+06       0.00000E+00       0.00000E+00      -3.78825E+05       0.00000E+00       2.77762E+06       0.00000E+00       3.11405E+03       2.42503E+00       0.00000E+00       6.60113E+05       0.00000E+00       5.75573E+02       0.00000E+00       0.00000E+00       2.79324E+06       0.00000E+00       2.72637E+08       0.00000E+00       2.51666E+04      -2.79316E+06       0.00000E+00       7.01075E+02       0.00000E+00       2.72622E+08       0.00000E+00       0.00000E+00       1.43982E+03       0.00000E+00       3.42300E+04       0.00000E+00      -8.70343E+08
         47   0.11750E+01      -4.57829E+05       0.00000E+00      -2.38179E+01       0.00000E+00      -2.43339E+06       0.00000E+00       0.00000E+00      -4.57772E+05       0.00000E+00       2.43389E+06       0.00000E+00       4.24113E+03       2.52359E-01       0.00000E+00       6.37321E+05       0.00000E+00       5.07531E+02       0.00000E+00       0.00000E+00       2.45941E+06       0.00000E+00       2.61451E+08       0.00000E+00       3.55049E+04      -2.45916E+06       0.00000E+00       6.55963E+02       0.00000E+00       2.61439E+08       0.00000E+00       0.00000E+00       2.05660E+03       0.00000E+00       4.75185E+04       0.00000E+00      -1.04805E+09
         48   0.12000E+01      -5.33485E+05       0.00000E+00      -3.04841E+01       0.00000E+00      -2.09495E+06       0.00000E+00       0.00000E+00      -5.33407E+05       0.00000E+00       2.09568E+06       0.00000E+00       5.31457E+03      -1.85113E+00       0.00000E+00       6.14245E+05       0.00000E+00       4.40203E+02       0.00000E+00       0.00000E+00       2.13079E+06       0.00000E+00       2.50171E+08       0.00000E+00       4.54083E+04      -2.13036E+06       0.00000E+00       6.10489E+02       0.00000E+00       2.50162E+08       0.00000E+00       0.00000E+00       2.64539E+03       0.00000E+00       6.02247E+04       0.00000E+00      -1.21869E+09
         49   0.12250E+01      -6.05959E+05       0.00000E+00      -3.67570E+01       0.00000E+00      -1.76214E+06       0.00000E+00       0.00000E+00      -6.05860E+05       0.00000E+00       1.76309E+06       0.00000E+00       6.32178E+03      -3.86432E+00       0.00000E+00       5.90887E+05       0.00000E+00       3.74091E+02       0.00000E+00       0.00000E+00       1.80739E+06       0.00000E+00       2.38800E+08       0.00000E+00       5.47605E+04      -1.80680E+06       0.00000E+00       5.64881E+02       0.00000E+00       2.38794E+08       0.00000E+00       0.00000E+00       3.19942E+03       0.00000E+00       7.21990E+04       0.00000E+00      -1.38250E+09
         50   0.12500E+01      -6.75378E+05       0.00000E+00      -4.25644E+01       0.00000E+00      -1.43515E+06       0.00000E+00       0.00000E+00      -6.75261E+05       0.00000E+00       1.43628E+06       0.00000E+00       7.25099E+03      -5.76719E+00       0.00000E+00       5.67259E+05       0.00000E+00       3.09685E+02       0.00000E+00       0.00000E+00       1.48928E+06       0.00000E+00       2.27346E+08       0.00000E+00       6.34515E+04      -1.48854E+06       0.00000E+00       5.19371E+02       0.00000E+00       2.27342E+08       0.00000E+00       0.00000E+00       3.71233E+03       0.00000E+00       8.33004E+04       0.00000E+00      -1.53975E+09
         51   0.12750E+01      -7.41889E+05       0.00000E+00      -4.78396E+01       0.00000E+00      -1.11403E+06       0.00000E+00       0.00000E+00      -7.41754E+05       0.00000E+00       1.11535E+06       0.00000E+00       8.09133E+03      -7.54100E+00       0.00000E+00       5.43366E+05       0.00000E+00       2.47453E+02       0.00000E+00       0.00000E+00       1.17645E+06       0.00000E+00       2.15812E+08       0.00000E+00       7.13792E+04      -1.17557E+06       0.00000E+00       4.74186E+02       0.00000E+00       2.15810E+08       0.00000E+00       0.00000E+00       4.17824E+03       0.00000E+00       9.33981E+04       0.00000E+00      -1.69071E+09
         52   0.13000E+01      -8.05630E+05       0.00000E+00      -5.25224E+01       0.00000E+00      -7.98930E+05       0.00000E+00       0.00000E+00      -8.05480E+05       0.00000E+00       8.00409E+05       0.00000E+00       8.83301E+03      -9.16855E+00       0.00000E+00       5.19221E+05       0.00000E+00       1.87839E+02       0.00000E+00       0.00000E+00       8.68961E+05       0.00000E+00       2.04206E+08       0.00000E+00       7.84506E+04      -8.67953E+05       0.00000E+00       4.29551E+02       0.00000E+00       2.04207E+08       0.00000E+00       0.00000E+00       4.59182E+03       0.00000E+00       1.02373E+05       0.00000E+00      -1.83568E+09
         53   0.13250E+01      -8.66752E+05       0.00000E+00      -5.65593E+01       0.00000E+00      -4.89888E+05       0.00000E+00       0.00000E+00      -8.66588E+05       0.00000E+00       4.91514E+05       0.00000E+00       9.46739E+03      -1.06343E+01       0.00000E+00       4.94833E+05       0.00000E+00       1.31254E+02       0.00000E+00       0.00000E+00       5.66777E+05       0.00000E+00       1.92532E+08       0.00000E+00       8.45827E+04      -5.65663E+05       0.00000E+00       3.85683E+02       0.00000E+00       1.92536E+08       0.00000E+00       0.00000E+00       4.94839E+03       0.00000E+00       1.10120E+05       0.00000E+00      -1.97495E+09
         54   0.13500E+01      -9.25394E+05       0.00000E+00      -5.99049E+01       0.00000E+00      -1.87019E+05       0.00000E+00       0.00000E+00      -9.25220E+05       0.00000E+00       1.88758E+05       0.00000E+00       9.98711E+03      -1.19248E+01       0.00000E+00       4.70217E+05       0.00000E+00       7.80771E+01       0.00000E+00       0.00000E+00       2.69941E+05       0.00000E+00       1.80798E+08       0.00000E+00       8.97034E+04      -2.68731E+05       0.00000E+00       3.42791E+02       0.00000E+00       1.80804E+08       0.00000E+00       0.00000E+00       5.24390E+03       0.00000E+00       1.16547E+05       0.00000E+00      -2.10881E+09
         55   0.13750E+01      -9.81704E+05       0.00000E+00      -6.25217E+01       0.00000E+00       1.09665E+05       0.00000E+00       0.00000E+00      -9.81521E+05       0.00000E+00      -1.07825E+05       0.00000E+00       1.03862E+04      -1.30284E+01       0.00000E+00       4.45385E+05       0.00000E+00       2.86470E+01       0.00000E+00       0.00000E+00      -2.15756E+04       0.00000E+00       1.69009E+08       0.00000E+00       9.37526E+04       2.28584E+04       0.00000E+00       3.01073E+02       0.00000E+00       1.69018E+08       0.00000E+00       0.00000E+00       5.47505E+03       0.00000E+00       1.21580E+05       0.00000E+00      -2.23755E+09
         56   0.14000E+01      -1.03582E+06       0.00000E+00      -6.43810E+01       0.00000E+00       4.00067E+05       0.00000E+00       0.00000E+00      -1.03563E+06       0.00000E+00      -3.98162E+05       0.00000E+00       1.06600E+04      -1.39357E+01       0.00000E+00       4.20354E+05       0.00000E+00      -1.67374E+01       0.00000E+00       0.00000E+00      -3.07733E+05       0.00000E+00       1.57173E+08       0.00000E+00       9.66827E+04       3.09077E+05       0.00000E+00       2.60716E+02       0.00000E+00       1.57183E+08       0.00000E+00       0.00000E+00       5.63930E+03       0.00000E+00       1.25158E+05       0.00000E+00      -2.36146E+09
         57   0.14250E+01      -1.08787E+06       0.00000E+00      -6.54631E+01       0.00000E+00       6.84195E+05       0.00000E+00       0.00000E+00      -1.08767E+06       0.00000E+00      -6.82239E+05       0.00000E+00       1.08056E+04      -1.46397E+01       0.00000E+00       3.95138E+05       0.00000E+00      -5.78266E+01       0.00000E+00       0.00000E+00      -5.88560E+05       0.00000E+00       1.45293E+08       0.00000E+00       9.84595E+04       5.89939E+05       0.00000E+00       2.21890E+02       0.00000E+00       1.45306E+08       0.00000E+00       0.00000E+00       5.73490E+03       0.00000E+00       1.27239E+05       0.00000E+00      -2.48081E+09
         58   0.14500E+01      -1.13797E+06       0.00000E+00      -6.57574E+01       0.00000E+00       9.61960E+05       0.00000E+00       0.00000E+00      -1.13778E+06       0.00000E+00      -9.59991E+05       0.00000E+00       1.08212E+04      -1.51356E+01       0.00000E+00       3.69757E+05       0.00000E+00      -9.44140E+01       0.00000E+00       0.00000E+00      -8.64002E+05       0.00000E+00       1.33380E+08       0.00000E+00       9.90619E+04       8.65404E+05       0.00000E+00       1.84754E+02       0.00000E+00       1.33394E+08       0.00000E+00       0.00000E+00       5.76090E+03       0.00000E+00       1.27800E+05       0.00000E+00      -2.59585E+09
         59   0.14750E+01      -1.18626E+06       0.00000E+00      -6.52628E+01       0.00000E+00       1.23338E+06       0.00000E+00       0.00000E+00      -1.18607E+06       0.00000E+00      -1.23141E+06       0.00000E+00       1.07071E+04      -1.54212E+01       0.00000E+00       3.44229E+05       0.00000E+00      -1.26349E+02       0.00000E+00       0.00000E+00      -1.13408E+06       0.00000E+00       1.21438E+08       0.00000E+00       9.84830E+04       1.13548E+06       0.00000E+00       1.49446E+02       0.00000E+00       1.21452E+08       0.00000E+00       0.00000E+00       5.71720E+03       0.00000E+00       1.26833E+05       0.00000E+00      -2.70683E+09
         60   0.15000E+01      -1.23283E+06       0.00000E+00      -6.39877E+01       0.00000E+00       1.49838E+06       0.00000E+00       0.00000E+00      -1.23264E+06       0.00000E+00      -1.49645E+06       0.00000E+00       1.04645E+04      -1.54966E+01       0.00000E+00       3.18577E+05       0.00000E+00      -1.53526E+02       0.00000E+00       0.00000E+00      -1.39872E+06       0.00000E+00       1.09475E+08       0.00000E+00       9.67295E+04       1.40010E+06       0.00000E+00       1.16087E+02       0.00000E+00       1.09491E+08       0.00000E+00       0.00000E+00       5.60451E+03       0.00000E+00       1.24351E+05       0.00000E+00      -2.81397E+09
         61   0.15250E+01      -1.27777E+06       0.00000E+00      -6.19493E+01       0.00000E+00       1.75698E+06       0.00000E+00       0.00000E+00      -1.27760E+06       0.00000E+00      -1.75510E+06       0.00000E+00       1.00967E+04      -1.53644E+01       0.00000E+00       2.92818E+05       0.00000E+00      -1.75899E+02       0.00000E+00       0.00000E+00      -1.65792E+06       0.00000E+00       9.74968E+07       0.00000E+00       9.38219E+04       1.65926E+06       0.00000E+00       8.47759E+01       0.00000E+00       9.75135E+07       0.00000E+00       0.00000E+00       5.42435E+03       0.00000E+00       1.20382E+05       0.00000E+00      -2.91747E+09
         62   0.15500E+01      -1.32118E+06       0.00000E+00      -5.91745E+01       0.00000E+00       2.00910E+06       0.00000E+00       0.00000E+00      -1.32101E+06       0.00000E+00      -2.00731E+06       0.00000E+00       9.60819E+03      -1.50295E+01       0.00000E+00       2.66979E+05       0.00000E+00      -1.93470E+02       0.00000E+00       0.00000E+00      -1.91160E+06       0.00000E+00       8.55130E+07       0.00000E+00       8.97942E+04       1.91289E+06       0.00000E+00       5.55950E+01       0.00000E+00       8.55302E+07       0.00000E+00       0.00000E+00       5.17907E+03       0.00000E+00       1.14974E+05       0.00000E+00      -3.01750E+09
         63   0.15750E+01      -1.36312E+06       0.00000E+00      -5.56984E+01       0.00000E+00       2.25476E+06       0.00000E+00       0.00000E+00      -1.36296E+06       0.00000E+00      -2.25307E+06       0.00000E+00       9.00487E+03      -1.44993E+01       0.00000E+00       2.41080E+05       0.00000E+00      -2.06298E+02       0.00000E+00       0.00000E+00      -2.15973E+06       0.00000E+00       7.35290E+07       0.00000E+00       8.46937E+04       2.16094E+06       0.00000E+00       2.86018E+01       0.00000E+00       7.35467E+07       0.00000E+00       0.00000E+00       4.87177E+03       0.00000E+00       1.08190E+05       0.00000E+00      -3.11423E+09
         64   0.16000E+01      -1.40364E+06       0.00000E+00      -5.15648E+01       0.00000E+00       2.49389E+06       0.00000E+00       0.00000E+00      -1.40351E+06       0.00000E+00      -2.49234E+06       0.00000E+00       8.29411E+03      -1.37833E+01       0.00000E+00       2.15148E+05       0.00000E+00      -2.14490E+02       0.00000E+00       0.00000E+00      -2.40221E+06       0.00000E+00       6.15543E+07       0.00000E+00       7.85802E+04       2.40334E+06       0.00000E+00       3.83310E+00       0.00000E+00       6.15719E+07       0.00000E+00       0.00000E+00       4.50627E+03       0.00000E+00       1.00111E+05       0.00000E+00      -3.20777E+09
         65   0.16250E+01      -1.44281E+06       0.00000E+00      -4.68252E+01       0.00000E+00       2.72651E+06       0.00000E+00       0.00000E+00      -1.44269E+06       0.00000E+00      -2.72509E+06       0.00000E+00       7.48453E+03      -1.28932E+01       0.00000E+00       1.89205E+05       0.00000E+00      -2.18210E+02       0.00000E+00       0.00000E+00      -2.63899E+06       0.00000E+00       4.95947E+07       0.00000E+00       7.15251E+04       2.64001E+06       0.00000E+00      -1.86974E+01       0.00000E+00       4.96123E+07       0.00000E+00       0.00000E+00       4.08714E+03       0.00000E+00       9.08315E+04       0.00000E+00      -3.29823E+09
         66   0.16500E+01      -1.48064E+06       0.00000E+00      -4.15382E+01       0.00000E+00       2.95254E+06       0.00000E+00       0.00000E+00      -1.48054E+06       0.00000E+00      -2.95129E+06       0.00000E+00       6.58590E+03      -1.18428E+01       0.00000E+00       1.63280E+05       0.00000E+00      -2.17663E+02       0.00000E+00       0.00000E+00      -2.86994E+06       0.00000E+00       3.76601E+07       0.00000E+00       6.36112E+04       2.87084E+06       0.00000E+00      -3.89977E+01       0.00000E+00       3.76772E+07       0.00000E+00       0.00000E+00       3.61951E+03       0.00000E+00       8.04619E+04       0.00000E+00      -3.38569E+09
         67   0.16750E+01      -1.51717E+06       0.00000E+00      -3.57690E+01       0.00000E+00       3.17199E+06       0.00000E+00       0.00000E+00      -1.51709E+06       0.00000E+00      -3.17092E+06       0.00000E+00       5.60906E+03      -1.06475E+01       0.00000E+00       1.37394E+05       0.00000E+00      -2.13111E+02       0.00000E+00       0.00000E+00      -3.09500E+06       0.00000E+00       2.57563E+07       0.00000E+00       5.49310E+04       3.09577E+06       0.00000E+00      -5.70997E+01       0.00000E+00       2.57730E+07       0.00000E+00       0.00000E+00       3.10916E+03       0.00000E+00       6.91244E+04       0.00000E+00      -3.47019E+09
         68   0.17000E+01      -1.55240E+06       0.00000E+00      -2.95886E+01       0.00000E+00       3.38478E+06       0.00000E+00       0.00000E+00      -1.55234E+06       0.00000E+00      -3.38391E+06       0.00000E+00       4.56580E+03      -9.32459E+00       0.00000E+00       1.11578E+05       0.00000E+00      -2.04850E+02       0.00000E+00       0.00000E+00      -3.31401E+06       0.00000E+00       1.38937E+07       0.00000E+00       4.55863E+04       3.31465E+06       0.00000E+00      -7.30555E+01       0.00000E+00       1.39094E+07       0.00000E+00       0.00000E+00       2.56231E+03       0.00000E+00       5.69529E+04       0.00000E+00      -3.55177E+09
         69   0.17250E+01      -1.58633E+06       0.00000E+00      -2.30727E+01       0.00000E+00       3.59093E+06       0.00000E+00       0.00000E+00      -1.58630E+06       0.00000E+00      -3.59026E+06       0.00000E+00       3.46865E+03      -7.89268E+00       0.00000E+00       8.58546E+04       0.00000E+00      -1.93225E+02       0.00000E+00       0.00000E+00      -3.52691E+06       0.00000E+00       2.07815E+06       0.00000E+00       3.56863E+04       3.52739E+06       0.00000E+00      -8.69411E+01       0.00000E+00       2.09301E+06       0.00000E+00       0.00000E+00       1.98569E+03       0.00000E+00       4.40911E+04       0.00000E+00      -3.63042E+09
         70   0.17500E+01      -1.61895E+06       0.00000E+00      -1.63011E+01       0.00000E+00       3.79034E+06       0.00000E+00       0.00000E+00      -1.61894E+06       0.00000E+00      -3.78990E+06       0.00000E+00       2.33082E+03      -6.37166E+00       0.00000E+00       6.02520E+04       0.00000E+00      -1.78611E+02       0.00000E+00       0.00000E+00      -3.73352E+06       0.00000E+00      -9.67999E+06       0.00000E+00       2.53471E+04       3.73385E+06       0.00000E+00      -9.88510E+01       0.00000E+00      -9.66642E+06       0.00000E+00       0.00000E+00       1.38630E+03       0.00000E+00       3.06911E+04       0.00000E+00      -3.70613E+09
         71   0.17750E+01      -1.65024E+06       0.00000E+00      -9.35660E+00       0.00000E+00       3.98303E+06       0.00000E+00       0.00000E+00      -1.65025E+06       0.00000E+00      -3.98280E+06       0.00000E+00       1.16598E+03      -4.78239E+00       0.00000E+00       3.47937E+04       0.00000E+00      -1.61421E+02       0.00000E+00       0.00000E+00      -3.93375E+06       0.00000E+00      -2.13745E+07       0.00000E+00       1.46895E+04       3.93392E+06       0.00000E+00      -1.08902E+02       0.00000E+00      -2.13622E+07       0.00000E+00       0.00000E+00       7.71484E+02       0.00000E+00       1.69111E+04       0.00000E+00      -3.77885E+09
         72   0.18000E+01      -1.68016E+06       0.00000E+00      -2.32417E+00       0.00000E+00       4.16891E+06       0.00000E+00       0.00000E+00      -1.68021E+06       0.00000E+00      -4.16891E+06       0.00000E+00      -1.18579E+01      -3.14651E+00       0.00000E+00       9.50726E+03       0.00000E+00      -1.42090E+02       0.00000E+00       0.00000E+00      -4.12744E+06       0.00000E+00      -3.29953E+07       0.00000E+00       3.83823E+03       4.12745E+06       0.00000E+00      -1.17227E+02       0.00000E+00      -3.29845E+07       0.00000E+00       0.00000E+00       1.48726E+02       0.00000E+00       2.91387E+03       0.00000E+00      -3.84854E+09
         73   0.18250E+01      -1.70869E+06       0.00000E+00       4.71039E+00       0.00000E+00       4.34798E+06       0.00000E+00       0.00000E+00      -1.70876E+06       0.00000E+00      -4.34820E+06       0.00000E+00      -1.18856E+03      -1.48616E+00       0.00000E+00      -1.55847E+04       0.00000E+00      -1.21083E+02       0.00000E+00       0.00000E+00      -4.31447E+06       0.00000E+00      -4.45360E+07       0.00000E+00      -7.07981E+03       4.31432E+06       0.00000E+00      -1.23980E+02       0.00000E+00      -4.45266E+07       0.00000E+00       0.00000E+00      -4.74365E+02       0.00000E+00      -1.11351E+04       0.00000E+00      -3.91510E+09
         74   0.18500E+01      -1.73577E+06       0.00000E+00       1.16611E+01       0.00000E+00       4.52016E+06       0.00000E+00       0.00000E+00      -1.73587E+06       0.00000E+00      -4.52062E+06       0.00000E+00      -2.34996E+03       1.76287E-01       0.00000E+00      -4.04562E+04       0.00000E+00      -9.88751E+01       0.00000E+00       0.00000E+00      -4.49469E+06       0.00000E+00      -5.59866E+07       0.00000E+00      -1.79369E+04       4.49438E+06       0.00000E+00      -1.29326E+02       0.00000E+00      -5.59791E+07       0.00000E+00       0.00000E+00      -1.09020E+03       0.00000E+00      -2.50698E+04       0.00000E+00      -3.97846E+09
         75   0.18750E+01      -1.76137E+06       0.00000E+00       1.84430E+01       0.00000E+00       4.68546E+06       0.00000E+00       0.00000E+00      -1.76149E+06       0.00000E+00      -4.68613E+06       0.00000E+00      -3.48212E+03       1.81847E+00       0.00000E+00      -6.50861E+04       0.00000E+00      -7.59613E+01       0.00000E+00       0.00000E+00      -4.66799E+06       0.00000E+00      -6.73408E+07       0.00000E+00      -2.86061E+04       4.66751E+06       0.00000E+00      -1.33449E+02       0.00000E+00      -6.73349E+07       0.00000E+00       0.00000E+00      -1.69126E+03       0.00000E+00      -3.87255E+04       0.00000E+00      -4.03851E+09
         76   0.19000E+01      -1.78541E+06       0.00000E+00       2.49733E+01       0.00000E+00       4.84380E+06       0.00000E+00       0.00000E+00      -1.78556E+06       0.00000E+00      -4.84468E+06       0.00000E+00      -4.57142E+03       3.41830E+00       0.00000E+00      -8.94501E+04       0.00000E+00      -5.28372E+01       0.00000E+00       0.00000E+00      -4.83420E+06       0.00000E+00      -7.85888E+07       0.00000E+00      -3.89628E+04       4.83358E+06       0.00000E+00      -1.36541E+02       0.00000E+00      -7.85848E+07       0.00000E+00       0.00000E+00      -2.27021E+03       0.00000E+00      -5.19409E+04       0.00000E+00      -4.09515E+09
         77   0.19250E+01      -1.80787E+06       0.00000E+00       3.11720E+01       0.00000E+00       4.99519E+06       0.00000E+00       0.00000E+00      -1.80803E+06       0.00000E+00      -4.99627E+06       0.00000E+00      -5.60476E+03       4.95423E+00       0.00000E+00      -1.13530E+05       0.00000E+00      -3.00057E+01       0.00000E+00       0.00000E+00      -4.99325E+06       0.00000E+00      -8.97248E+07       0.00000E+00      -4.88860E+04       4.99248E+06       0.00000E+00      -1.38809E+02       0.00000E+00      -8.97225E+07       0.00000E+00       0.00000E+00      -2.81995E+03       0.00000E+00      -6.45595E+04       0.00000E+00      -4.14825E+09
         78   0.19500E+01      -1.82866E+06       0.00000E+00       3.69631E+01       0.00000E+00       5.13956E+06       0.00000E+00       0.00000E+00      -1.82885E+06       0.00000E+00      -5.14082E+06       0.00000E+00      -6.56968E+03       6.40550E+00       0.00000E+00      -1.37303E+05       0.00000E+00      -7.95861E+00       0.00000E+00       0.00000E+00      -5.14498E+06       0.00000E+00      -1.00739E+08       0.00000E+00      -5.82596E+04       5.14407E+06       0.00000E+00      -1.40463E+02       0.00000E+00      -1.00739E+08       0.00000E+00       0.00000E+00      -3.33376E+03       0.00000E+00      -7.64322E+04       0.00000E+00      -4.19770E+09
         79   0.19750E+01      -1.84775E+06       0.00000E+00       4.22757E+01       0.00000E+00       5.27692E+06       0.00000E+00       0.00000E+00      -1.84796E+06       0.00000E+00      -5.27835E+06       0.00000E+00      -7.45458E+03       7.75238E+00       0.00000E+00      -1.60754E+05       0.00000E+00       1.28150E+01       0.00000E+00       0.00000E+00      -5.28930E+06       0.00000E+00      -1.11626E+08       0.00000E+00      -6.69745E+04       5.28828E+06       0.00000E+00      -1.41722E+02       0.00000E+00      -1.11627E+08       0.00000E+00       0.00000E+00      -3.80533E+03       0.00000E+00      -8.74184E+04       0.00000E+00      -4.24337E+09
         80   0.20000E+01      -1.86507E+06       0.00000E+00       4.70442E+01       0.00000E+00       5.40721E+06       0.00000E+00       0.00000E+00      -1.86530E+06       0.00000E+00      -5.40880E+06       0.00000E+00      -8.24874E+03       8.97638E+00       0.00000E+00      -1.83864E+05       0.00000E+00       3.18483E+01       0.00000E+00       0.00000E+00      -5.42611E+06       0.00000E+00      -1.22376E+08       0.00000E+00      -7.49287E+04       5.42498E+06       0.00000E+00      -1.42808E+02       0.00000E+00      -1.22379E+08       0.00000E+00       0.00000E+00      -4.22885E+03       0.00000E+00      -9.73881E+04       0.00000E+00      -4.28516E+09
         81   0.20250E+01      -1.88057E+06       0.00000E+00       5.12099E+01       0.00000E+00       5.53048E+06       0.00000E+00       0.00000E+00      -1.88082E+06       0.00000E+00      -5.53219E+06       0.00000E+00      -8.94258E+03       1.00605E+01       0.00000E+00      -2.06618E+05       0.00000E+00       4.86886E+01       0.00000E+00       0.00000E+00      -5.55534E+06       0.00000E+00      -1.32985E+08       0.00000E+00      -8.20297E+04       5.55412E+06       0.00000E+00      -1.43945E+02       0.00000E+00      -1.32989E+08       0.00000E+00       0.00000E+00      -4.59908E+03       0.00000E+00      -1.06223E+05       0.00000E+00      -4.32292E+09
         82   0.20500E+01      -1.89421E+06       0.00000E+00       5.47210E+01       0.00000E+00       5.64665E+06       0.00000E+00       0.00000E+00      -1.89447E+06       0.00000E+00      -5.64848E+06       0.00000E+00      -9.52765E+03       1.09895E+01       0.00000E+00      -2.29002E+05       0.00000E+00       6.29149E+01       0.00000E+00       0.00000E+00      -5.67691E+06       0.00000E+00      -1.43442E+08       0.00000E+00      -8.81945E+04       5.67560E+06       0.00000E+00      -1.45355E+02       0.00000E+00      -1.43449E+08       0.00000E+00       0.00000E+00      -4.91143E+03       0.00000E+00      -1.13819E+05       0.00000E+00      -4.35657E+09
         83   0.20750E+01      -1.90594E+06       0.00000E+00       5.75336E+01       0.00000E+00       5.75580E+06       0.00000E+00       0.00000E+00      -1.90621E+06       0.00000E+00      -5.75770E+06       0.00000E+00      -9.99685E+03       1.17497E+01       0.00000E+00      -2.51004E+05       0.00000E+00       7.41313E+01       0.00000E+00       0.00000E+00      -5.79078E+06       0.00000E+00      -1.53745E+08       0.00000E+00      -9.33516E+04       5.78941E+06       0.00000E+00      -1.47256E+02       0.00000E+00      -1.53753E+08       0.00000E+00       0.00000E+00      -5.16196E+03       0.00000E+00      -1.20085E+05       0.00000E+00      -4.38599E+09
         84   0.21000E+01      -1.91572E+06       0.00000E+00       5.96121E+01       0.00000E+00       5.85787E+06       0.00000E+00       0.00000E+00      -1.91600E+06       0.00000E+00      -5.85985E+06       0.00000E+00      -1.03444E+04       1.23298E+01       0.00000E+00      -2.72613E+05       0.00000E+00       8.19823E+01       0.00000E+00       0.00000E+00      -5.89690E+06       0.00000E+00      -1.63884E+08       0.00000E+00      -9.74407E+04       5.89548E+06       0.00000E+00      -1.49862E+02       0.00000E+00      -1.63893E+08       0.00000E+00       0.00000E+00      -5.34750E+03       0.00000E+00      -1.24948E+05       0.00000E+00      -4.41110E+09
         85   0.21250E+01      -1.92352E+06       0.00000E+00       6.09298E+01       0.00000E+00       5.95295E+06       0.00000E+00       0.00000E+00      -1.92380E+06       0.00000E+00      -5.95495E+06       0.00000E+00      -1.05660E+04       1.27204E+01       0.00000E+00      -2.93820E+05       0.00000E+00       8.61460E+01       0.00000E+00       0.00000E+00      -5.99527E+06       0.00000E+00      -1.73856E+08       0.00000E+00      -1.00415E+05       5.99383E+06       0.00000E+00      -1.53377E+02       0.00000E+00      -1.73866E+08       0.00000E+00       0.00000E+00      -5.46564E+03       0.00000E+00      -1.28348E+05       0.00000E+00      -4.43181E+09
         86   0.21500E+01      -1.92931E+06       0.00000E+00       6.14688E+01       0.00000E+00       6.04100E+06       0.00000E+00       0.00000E+00      -1.92960E+06       0.00000E+00      -6.04303E+06       0.00000E+00      -1.06587E+04       1.29145E+01       0.00000E+00      -3.14617E+05       0.00000E+00       8.63492E+01       0.00000E+00       0.00000E+00      -6.08588E+06       0.00000E+00      -1.83653E+08       0.00000E+00      -1.02239E+05       6.08444E+06       0.00000E+00      -1.57996E+02       0.00000E+00      -1.83664E+08       0.00000E+00       0.00000E+00      -5.51479E+03       0.00000E+00      -1.30246E+05       0.00000E+00      -4.44807E+09
         87   0.21750E+01      -1.93309E+06       0.00000E+00       6.12209E+01       0.00000E+00       6.12214E+06       0.00000E+00       0.00000E+00      -1.93338E+06       0.00000E+00      -6.12414E+06       0.00000E+00      -1.06214E+04       1.29071E+01       0.00000E+00      -3.35000E+05       0.00000E+00       8.23583E+01       0.00000E+00       0.00000E+00      -6.16878E+06       0.00000E+00      -1.93271E+08       0.00000E+00      -1.02893E+05       6.16735E+06       0.00000E+00      -1.63902E+02       0.00000E+00      -1.93282E+08       0.00000E+00       0.00000E+00      -5.49414E+03       0.00000E+00      -1.30619E+05       0.00000E+00      -4.45982E+09
         88   0.22000E+01      -1.93483E+06       0.00000E+00       6.01869E+01       0.00000E+00       6.19635E+06       0.00000E+00       0.00000E+00      -1.93512E+06       0.00000E+00      -6.19832E+06       0.00000E+00      -1.04542E+04       1.26961E+01       0.00000E+00      -3.54962E+05       0.00000E+00       7.39954E+01       0.00000E+00       0.00000E+00      -6.24398E+06       0.00000E+00      -2.02703E+08       0.00000E+00      -1.02368E+05       6.24258E+06       0.00000E+00      -1.71261E+02       0.00000E+00      -2.02716E+08       0.00000E+00       0.00000E+00      -5.40375E+03       0.00000E+00      -1.29461E+05       0.00000E+00      -4.46703E+09
         89   0.22250E+01      -1.93455E+06       0.00000E+00       5.83772E+01       0.00000E+00       6.26376E+06       0.00000E+00       0.00000E+00      -1.93483E+06       0.00000E+00      -6.26565E+06       0.00000E+00      -1.01589E+04       1.22814E+01       0.00000E+00      -3.74501E+05       0.00000E+00       6.11262E+01       0.00000E+00       0.00000E+00      -6.31158E+06       0.00000E+00      -2.11948E+08       0.00000E+00      -1.00673E+05       6.31023E+06       0.00000E+00      -1.80225E+02       0.00000E+00      -2.11961E+08       0.00000E+00       0.00000E+00      -5.24450E+03       0.00000E+00      -1.26786E+05       0.00000E+00      -4.46969E+09
         90   0.22500E+01      -1.93224E+06       0.00000E+00       5.58113E+01       0.00000E+00       6.32438E+06       0.00000E+00       0.00000E+00      -1.93252E+06       0.00000E+00      -6.32618E+06       0.00000E+00      -9.73876E+03       1.16654E+01       0.00000E+00      -3.93615E+05       0.00000E+00       4.36761E+01       0.00000E+00       0.00000E+00      -6.37163E+06       0.00000E+00      -2.20999E+08       0.00000E+00      -9.78259E+04       6.37036E+06       0.00000E+00      -1.90927E+02       0.00000E+00      -2.21011E+08       0.00000E+00       0.00000E+00      -5.01810E+03       0.00000E+00      -1.22625E+05       0.00000E+00      -4.46779E+09
         91   0.22750E+01      -1.92794E+06       0.00000E+00       5.25181E+01       0.00000E+00       6.37837E+06       0.00000E+00       0.00000E+00      -1.92820E+06       0.00000E+00      -6.38004E+06       0.00000E+00      -9.19859E+03       1.08529E+01       0.00000E+00      -4.12304E+05       0.00000E+00       2.16174E+01       0.00000E+00       0.00000E+00      -6.42428E+06       0.00000E+00      -2.29853E+08       0.00000E+00      -9.38617E+04       6.42310E+06       0.00000E+00      -2.03479E+02       0.00000E+00      -2.29865E+08       0.00000E+00       0.00000E+00      -4.72703E+03       0.00000E+00      -1.17026E+05       0.00000E+00      -4.46137E+09
         92   0.23000E+01      -1.92166E+06       0.00000E+00       4.85348E+01       0.00000E+00       6.42575E+06       0.00000E+00       0.00000E+00      -1.92191E+06       0.00000E+00      -6.42729E+06       0.00000E+00      -8.54455E+03       9.85120E+00       0.00000E+00      -4.30567E+05       0.00000E+00      -5.01749E+00       0.00000E+00       0.00000E+00      -6.46962E+06       0.00000E+00      -2.38505E+08       0.00000E+00      -8.88266E+04       6.46855E+06       0.00000E+00      -2.17974E+02       0.00000E+00      -2.38517E+08       0.00000E+00       0.00000E+00      -4.37458E+03       0.00000E+00      -1.10055E+05       0.00000E+00      -4.45046E+09
         93   0.23250E+01      -1.91344E+06       0.00000E+00       4.39071E+01       0.00000E+00       6.46670E+06       0.00000E+00       0.00000E+00      -1.91368E+06       0.00000E+00      -6.46807E+06       0.00000E+00      -7.78419E+03       8.66959E+00       0.00000E+00      -4.48407E+05       0.00000E+00      -3.61485E+01       0.00000E+00       0.00000E+00      -6.50784E+06       0.00000E+00      -2.46955E+08       0.00000E+00      -8.27800E+04       6.50688E+06       0.00000E+00      -2.34481E+02       0.00000E+00      -2.46966E+08       0.00000E+00       0.00000E+00      -3.96476E+03       0.00000E+00      -1.01793E+05       0.00000E+00      -4.43512E+09
         94   0.23500E+01      -1.90333E+06       0.00000E+00       3.86883E+01       0.00000E+00       6.50128E+06       0.00000E+00       0.00000E+00      -1.90355E+06       0.00000E+00      -6.50247E+06       0.00000E+00      -6.92628E+03       7.31959E+00       0.00000E+00      -4.65826E+05       0.00000E+00      -7.16362E+01       0.00000E+00       0.00000E+00      -6.53905E+06       0.00000E+00      -2.55197E+08       0.00000E+00      -7.57927E+04       6.53823E+06       0.00000E+00      -2.53045E+02       0.00000E+00      -2.55207E+08       0.00000E+00       0.00000E+00      -3.50228E+03       0.00000E+00      -9.23377E+04       0.00000E+00      -4.41544E+09
         95   0.23750E+01      -1.89139E+06       0.00000E+00       3.29389E+01       0.00000E+00       6.52969E+06       0.00000E+00       0.00000E+00      -1.89159E+06       0.00000E+00      -6.53066E+06       0.00000E+00      -5.98078E+03       5.81473E+00       0.00000E+00      -4.82828E+05       0.00000E+00      -1.11296E+02       0.00000E+00       0.00000E+00      -6.56349E+06       0.00000E+00      -2.63231E+08       0.00000E+00      -6.79467E+04       6.56282E+06       0.00000E+00      -2.73691E+02       0.00000E+00      -2.63240E+08       0.00000E+00       0.00000E+00      -2.99245E+03       0.00000E+00      -8.17997E+04       0.00000E+00      -4.39150E+09
         96   0.24000E+01      -1.87766E+06       0.00000E+00       2.67256E+01       0.00000E+00       6.55199E+06       0.00000E+00       0.00000E+00      -1.87784E+06       0.00000E+00      -6.55276E+06       0.00000E+00      -4.95867E+03       4.17035E+00       0.00000E+00      -4.99414E+05       0.00000E+00      -1.54886E+02       0.00000E+00       0.00000E+00      -6.58131E+06       0.00000E+00      -2.71052E+08       0.00000E+00      -5.93339E+04       6.58081E+06       0.00000E+00      -2.96414E+02       0.00000E+00      -2.71060E+08       0.00000E+00       0.00000E+00      -2.44118E+03       0.00000E+00      -7.03031E+04       0.00000E+00      -4.36343E+09
         97   0.24250E+01      -1.86222E+06       0.00000E+00       2.01210E+01       0.00000E+00       6.56841E+06       0.00000E+00       0.00000E+00      -1.86238E+06       0.00000E+00      -6.56894E+06       0.00000E+00      -3.87184E+03       2.40347E+00       0.00000E+00      -5.15592E+05       0.00000E+00      -2.02125E+02       0.00000E+00       0.00000E+00      -6.59278E+06       0.00000E+00      -2.78662E+08       0.00000E+00      -5.00552E+04       6.59245E+06       0.00000E+00      -3.21189E+02       0.00000E+00      -2.78668E+08       0.00000E+00       0.00000E+00      -1.85487E+03       0.00000E+00      -5.79828E+04       0.00000E+00      -4.33136E+09
         98   0.24500E+01      -1.84515E+06       0.00000E+00       1.32021E+01       0.00000E+00       6.57904E+06       0.00000E+00       0.00000E+00      -1.84528E+06       0.00000E+00      -6.57934E+06       0.00000E+00      -2.73295E+03       5.32566E-01       0.00000E+00      -5.31364E+05       0.00000E+00      -2.52681E+02       0.00000E+00       0.00000E+00      -6.59809E+06       0.00000E+00      -2.86056E+08       0.00000E+00      -4.02190E+04       6.59793E+06       0.00000E+00      -3.47961E+02       0.00000E+00      -2.86061E+08       0.00000E+00       0.00000E+00      -1.24036E+03       0.00000E+00      -4.49839E+04       0.00000E+00      -4.29542E+09
         99   0.24750E+01      -1.82653E+06       0.00000E+00       6.04983E+00       0.00000E+00       6.58413E+06       0.00000E+00       0.00000E+00      -1.82663E+06       0.00000E+00      -6.58416E+06       0.00000E+00      -1.55527E+03      -1.42263E+00       0.00000E+00      -5.46736E+05       0.00000E+00      -3.06186E+02       0.00000E+00       0.00000E+00      -6.59750E+06       0.00000E+00      -2.93235E+08       0.00000E+00      -2.99406E+04       6.59754E+06       0.00000E+00      -3.76657E+02       0.00000E+00      -2.93238E+08       0.00000E+00       0.00000E+00      -6.04789E+02       0.00000E+00      -3.14592E+04       0.00000E+00      -4.25579E+09
        100   0.25000E+01      -1.80643E+06       0.00000E+00      -1.25198E+00       0.00000E+00       6.58376E+06       0.00000E+00       0.00000E+00      -1.80651E+06       0.00000E+00      -6.58355E+06       0.00000E+00      -3.52545E+02      -3.44139E+00       0.00000E+00      -5.61711E+05       0.00000E+00      -3.62229E+02       0.00000E+00       0.00000E+00      -6.59125E+06       0.00000E+00      -3.00198E+08       0.00000E+00      -1.93396E+04       6.59148E+06       0.00000E+00      -4.07175E+02       0.00000E+00      -3.00198E+08       0.00000E+00       0.00000E+00       4.43947E+01       0.00000E+00      -1.75680E+04       0.00000E+00      -4.21262E+09
        101   0.25250E+01      -1.78496E+06       0.00000E+00      -8.61763E+00       0.00000E+00       6.57821E+06       0.00000E+00       0.00000E+00      -1.78501E+06       0.00000E+00      -6.57772E+06       0.00000E+00       8.61185E+02      -5.50216E+00       0.00000E+00      -5.76296E+05       0.00000E+00      -4.20376E+02       0.00000E+00       0.00000E+00      -6.57963E+06       0.00000E+00      -3.06944E+08       0.00000E+00      -8.54031E+03       6.58005E+06       0.00000E+00      -4.39392E+02       0.00000E+00      -3.06942E+08       0.00000E+00       0.00000E+00       6.99604E+02       0.00000E+00      -3.47358E+03       0.00000E+00      -4.16610E+09
        102   0.25500E+01      -1.76219E+06       0.00000E+00      -1.59607E+01       0.00000E+00       6.56758E+06       0.00000E+00       0.00000E+00      -1.76222E+06       0.00000E+00      -6.56685E+06       0.00000E+00       2.07177E+03      -7.58294E+00       0.00000E+00      -5.90492E+05       0.00000E+00      -4.80153E+02       0.00000E+00       0.00000E+00      -6.56288E+06       0.00000E+00      -3.13472E+08       0.00000E+00       2.33166E+03       6.56349E+06       0.00000E+00      -4.73161E+02       0.00000E+00      -3.13468E+08       0.00000E+00       0.00000E+00       1.35315E+03       0.00000E+00       1.06580E+04       0.00000E+00      -4.11643E+09
        103   0.25750E+01      -1.73824E+06       0.00000E+00      -2.31949E+01       0.00000E+00       6.55214E+06       0.00000E+00       0.00000E+00      -1.73824E+06       0.00000E+00      -6.55114E+06       0.00000E+00       3.26503E+03      -9.66135E+00       0.00000E+00      -6.04307E+05       0.00000E+00      -5.41076E+02       0.00000E+00       0.00000E+00      -6.54130E+06       0.00000E+00      -3.19784E+08       0.00000E+00       1.31492E+04       6.54209E+06       0.00000E+00      -5.08318E+02       0.00000E+00      -3.19778E+08       0.00000E+00       0.00000E+00       1.99738E+03       0.00000E+00       2.46604E+04       0.00000E+00      -4.06380E+09
        104   0.26000E+01      -1.71320E+06       0.00000E+00      -3.02351E+01       0.00000E+00       6.53203E+06       0.00000E+00       0.00000E+00      -1.71317E+06       0.00000E+00      -6.53079E+06       0.00000E+00       4.42708E+03      -1.17151E+01       0.00000E+00      -6.17741E+05       0.00000E+00      -6.02632E+02       0.00000E+00       0.00000E+00      -6.51513E+06       0.00000E+00      -3.25878E+08       0.00000E+00       2.37866E+04       6.51612E+06       0.00000E+00      -5.44675E+02       0.00000E+00      -3.25869E+08       0.00000E+00       0.00000E+00       2.62472E+03       0.00000E+00       3.83687E+04       0.00000E+00      -4.00841E+09
        105   0.26250E+01      -1.68716E+06       0.00000E+00      -3.69985E+01       0.00000E+00       6.50751E+06       0.00000E+00       0.00000E+00      -1.68710E+06       0.00000E+00      -6.50602E+06       0.00000E+00       5.54429E+03      -1.37221E+01       0.00000E+00      -6.30799E+05       0.00000E+00      -6.64307E+02       0.00000E+00       0.00000E+00      -6.48470E+06       0.00000E+00      -3.31757E+08       0.00000E+00       3.41197E+04       6.48586E+06       0.00000E+00      -5.82029E+02       0.00000E+00      -3.31745E+08       0.00000E+00       0.00000E+00       3.22779E+03       0.00000E+00       5.16216E+04       0.00000E+00      -3.95047E+09
        106   0.26500E+01      -1.66022E+06       0.00000E+00      -4.34053E+01       0.00000E+00       6.47871E+06       0.00000E+00       0.00000E+00      -1.66014E+06       0.00000E+00      -6.47701E+06       0.00000E+00       6.60365E+03      -1.56607E+01       0.00000E+00      -6.43481E+05       0.00000E+00      -7.25570E+02       0.00000E+00       0.00000E+00      -6.45024E+06       0.00000E+00      -3.37418E+08       0.00000E+00       4.40285E+04       6.45157E+06       0.00000E+00      -6.20161E+02       0.00000E+00      -3.37403E+08       0.00000E+00       0.00000E+00       3.79950E+03       0.00000E+00       6.42630E+04       0.00000E+00      -3.89019E+09
        107   0.26750E+01      -1.63247E+06       0.00000E+00      -4.93802E+01       0.00000E+00       6.44592E+06       0.00000E+00       0.00000E+00      -1.63237E+06       0.00000E+00      -6.44399E+06       0.00000E+00       7.59275E+03      -1.75101E+01       0.00000E+00      -6.55792E+05       0.00000E+00      -7.85899E+02       0.00000E+00       0.00000E+00      -6.41206E+06       0.00000E+00      -3.42865E+08       0.00000E+00       5.33976E+04       6.41356E+06       0.00000E+00      -6.58838E+02       0.00000E+00      -3.42847E+08       0.00000E+00       0.00000E+00       4.33311E+03       0.00000E+00       7.61441E+04       0.00000E+00      -3.82776E+09
        108   0.27000E+01      -1.60402E+06       0.00000E+00      -5.48527E+01       0.00000E+00       6.40926E+06       0.00000E+00       0.00000E+00      -1.60389E+06       0.00000E+00      -6.40715E+06       0.00000E+00       8.50006E+03      -1.92505E+01       0.00000E+00      -6.67729E+05       0.00000E+00      -8.44771E+02       0.00000E+00       0.00000E+00      -6.37041E+06       0.00000E+00      -3.48096E+08       0.00000E+00       6.21186E+04       6.37205E+06       0.00000E+00      -6.97815E+02       0.00000E+00      -3.48076E+08       0.00000E+00       0.00000E+00       4.82234E+03       0.00000E+00       8.71250E+04       0.00000E+00      -3.76341E+09
        109   0.27250E+01      -1.57495E+06       0.00000E+00      -5.97583E+01       0.00000E+00       6.36903E+06       0.00000E+00       0.00000E+00      -1.57480E+06       0.00000E+00      -6.36673E+06       0.00000E+00       9.31497E+03      -2.08632E+01       0.00000E+00      -6.79294E+05       0.00000E+00      -9.01679E+02       0.00000E+00       0.00000E+00      -6.32558E+06       0.00000E+00      -3.53115E+08       0.00000E+00       7.00900E+04       6.32736E+06       0.00000E+00      -7.36839E+02       0.00000E+00      -3.53092E+08       0.00000E+00       0.00000E+00       5.26142E+03       0.00000E+00       9.70764E+04       0.00000E+00      -3.69733E+09
        110   0.27500E+01      -1.54534E+06       0.00000E+00      -6.40391E+01       0.00000E+00       6.32533E+06       0.00000E+00       0.00000E+00      -1.54518E+06       0.00000E+00      -6.32289E+06       0.00000E+00       1.00280E+04      -2.23311E+01       0.00000E+00      -6.90484E+05       0.00000E+00      -9.56125E+02       0.00000E+00       0.00000E+00      -6.27780E+06       0.00000E+00      -3.57920E+08       0.00000E+00       7.72200E+04       6.27969E+06       0.00000E+00      -7.75650E+02       0.00000E+00      -3.57894E+08       0.00000E+00       0.00000E+00       5.64515E+03       0.00000E+00       1.05881E+05       0.00000E+00      -3.62972E+09
        111   0.27750E+01      -1.51530E+06       0.00000E+00      -6.76445E+01       0.00000E+00       6.27846E+06       0.00000E+00       0.00000E+00      -1.51512E+06       0.00000E+00      -6.27588E+06       0.00000E+00       1.06307E+04      -2.36386E+01       0.00000E+00      -7.01300E+05       0.00000E+00      -1.00764E+03       0.00000E+00       0.00000E+00      -6.22736E+06       0.00000E+00      -3.62515E+08       0.00000E+00       8.34259E+04       6.22935E+06       0.00000E+00      -8.13984E+02       0.00000E+00      -3.62486E+08       0.00000E+00       0.00000E+00       5.96901E+03       0.00000E+00       1.13436E+05       0.00000E+00      -3.56076E+09
        112   0.28000E+01      -1.48488E+06       0.00000E+00      -7.05321E+01       0.00000E+00       6.22854E+06       0.00000E+00       0.00000E+00      -1.48469E+06       0.00000E+00      -6.22586E+06       0.00000E+00       1.11162E+04      -2.47719E+01       0.00000E+00      -7.11736E+05       0.00000E+00      -1.05579E+03       0.00000E+00       0.00000E+00      -6.17445E+06       0.00000E+00      -3.66898E+08       0.00000E+00       8.86364E+04       6.17652E+06       0.00000E+00      -8.51575E+02       0.00000E+00      -3.66866E+08       0.00000E+00       0.00000E+00       6.22916E+03       0.00000E+00       1.19651E+05       0.00000E+00      -3.49064E+09
        113   0.28250E+01      -1.45417E+06       0.00000E+00      -7.26677E+01       0.00000E+00       6.17584E+06       0.00000E+00       0.00000E+00      -1.45396E+06       0.00000E+00      -6.17307E+06       0.00000E+00       1.14788E+04      -2.57193E+01       0.00000E+00      -7.21790E+05       0.00000E+00      -1.10014E+03       0.00000E+00       0.00000E+00      -6.11934E+06       0.00000E+00      -3.71072E+08       0.00000E+00       9.27919E+04       6.12148E+06       0.00000E+00      -8.88161E+02       0.00000E+00      -3.71039E+08       0.00000E+00       0.00000E+00       6.42252E+03       0.00000E+00       1.24455E+05       0.00000E+00      -3.41954E+09
        114   0.28500E+01      -1.42322E+06       0.00000E+00      -7.40261E+01       0.00000E+00       6.12046E+06       0.00000E+00       0.00000E+00      -1.42302E+06       0.00000E+00      -6.11766E+06       0.00000E+00       1.17142E+04      -2.64712E+01       0.00000E+00      -7.31456E+05       0.00000E+00      -1.14034E+03       0.00000E+00       0.00000E+00      -6.06222E+06       0.00000E+00      -3.75038E+08       0.00000E+00       9.58448E+04       6.06441E+06       0.00000E+00      -9.23480E+02       0.00000E+00      -3.75002E+08       0.00000E+00       0.00000E+00       6.54679E+03       0.00000E+00       1.27790E+05       0.00000E+00      -3.34760E+09
[...]
       2372   0.59300E+02       9.98240E+02       0.00000E+00      -6.38757E+01       0.00000E+00       1.56681E+04       0.00000E+00       0.00000E+00       1.23536E+03       0.00000E+00      -1.34775E+04       0.00000E+00       9.95499E+03      -1.68079E+01       0.00000E+00      -1.38960E+03       0.00000E+00      -3.06493E+02       0.00000E+00       0.00000E+00       1.55439E+04       0.00000E+00       1.03632E+06       0.00000E+00       8.74249E+04      -1.39285E+04       0.00000E+00      -5.84667E+01       0.00000E+00       1.04656E+06       0.00000E+00       0.00000E+00       6.28678E+03       0.00000E+00       1.23638E+05       0.00000E+00      -1.64430E+06
       2373   0.59325E+02       2.41365E+03       0.00000E+00      -6.28599E+01       0.00000E+00       1.31608E+04       0.00000E+00       0.00000E+00       2.65058E+03       0.00000E+00      -1.09879E+04       0.00000E+00       9.79239E+03      -1.65180E+01       0.00000E+00      -1.48573E+03       0.00000E+00      -2.98218E+02       0.00000E+00       0.00000E+00       1.76498E+04       0.00000E+00       1.02022E+06       0.00000E+00       8.58605E+04      -1.60657E+04       0.00000E+00      -5.45054E+01       0.00000E+00       1.02962E+06       0.00000E+00       0.00000E+00       6.18291E+03       0.00000E+00       1.21561E+05       0.00000E+00      -1.19960E+06
       2374   0.59350E+02       3.85195E+03       0.00000E+00      -6.10994E+01       0.00000E+00       1.04508E+04       0.00000E+00       0.00000E+00       4.07808E+03       0.00000E+00      -8.35499E+03       0.00000E+00       9.51406E+03      -1.60360E+01       0.00000E+00      -1.63936E+03       0.00000E+00      -2.86651E+02       0.00000E+00       0.00000E+00       1.95644E+04       0.00000E+00       9.94181E+05       0.00000E+00       8.32905E+04      -1.80215E+04       0.00000E+00      -5.01517E+01       0.00000E+00       1.00352E+06       0.00000E+00       0.00000E+00       6.00605E+03       0.00000E+00       1.18052E+05       0.00000E+00      -6.93589E+05
       2375   0.59375E+02       5.28628E+03       0.00000E+00      -5.86152E+01       0.00000E+00       7.63466E+03       0.00000E+00       0.00000E+00       5.50659E+03       0.00000E+00      -5.60745E+03       0.00000E+00       9.12323E+03      -1.53675E+01       0.00000E+00      -1.84558E+03       0.00000E+00      -2.71923E+02       0.00000E+00       0.00000E+00       2.12395E+04       0.00000E+00       9.59699E+05       0.00000E+00       7.97446E+04      -1.97645E+04       0.00000E+00      -4.54470E+01       0.00000E+00       9.68004E+05       0.00000E+00       0.00000E+00       5.75830E+03       0.00000E+00       1.13150E+05       0.00000E+00      -1.44143E+05
       2376   0.59400E+02       6.73323E+03       0.00000E+00      -5.54366E+01       0.00000E+00       4.63957E+03       0.00000E+00       0.00000E+00       6.93739E+03       0.00000E+00      -2.73835E+03       0.00000E+00       8.62461E+03      -1.45203E+01       0.00000E+00      -2.10731E+03       0.00000E+00      -2.54193E+02       0.00000E+00       0.00000E+00       2.27217E+04       0.00000E+00       9.16139E+05       0.00000E+00       7.52644E+04      -2.13239E+04       0.00000E+00      -4.04357E+01       0.00000E+00       9.24140E+05       0.00000E+00       0.00000E+00       5.44263E+03       0.00000E+00       1.06916E+05       0.00000E+00       4.60718E+05
       2377   0.59425E+02       8.16558E+03       0.00000E+00      -5.16015E+01       0.00000E+00       1.56650E+03       0.00000E+00       0.00000E+00       8.35898E+03       0.00000E+00       2.20047E+02       0.00000E+00       8.02405E+03      -1.35044E+01       0.00000E+00      -2.41821E+03       0.00000E+00      -2.33661E+02       0.00000E+00       0.00000E+00       2.39680E+04       0.00000E+00       8.65050E+05       0.00000E+00       6.99021E+04      -2.26717E+04       0.00000E+00      -3.51622E+01       0.00000E+00       8.71899E+05       0.00000E+00       0.00000E+00       5.06276E+03       0.00000E+00       9.94211E+04       0.00000E+00       1.10110E+06
       2378   0.59450E+02       9.60000E+03       0.00000E+00      -4.71553E+01       0.00000E+00      -1.65291E+03       0.00000E+00       0.00000E+00       9.77237E+03       0.00000E+00       3.27040E+03       0.00000E+00       7.32873E+03      -1.23316E+01       0.00000E+00      -2.77952E+03       0.00000E+00      -2.10550E+02       0.00000E+00       0.00000E+00       2.50291E+04       0.00000E+00       8.06038E+05       0.00000E+00       6.37206E+04      -2.38413E+04       0.00000E+00      -2.96734E+01       0.00000E+00       8.12510E+05       0.00000E+00       0.00000E+00       4.62322E+03       0.00000E+00       9.07549E+04       0.00000E+00       1.78826E+06
       2379   0.59475E+02       1.10086E+04       0.00000E+00      -4.21509E+01       0.00000E+00      -4.91827E+03       0.00000E+00       0.00000E+00       1.11661E+04       0.00000E+00       6.38021E+03       0.00000E+00       6.54680E+03      -1.10158E+01       0.00000E+00      -3.18358E+03       0.00000E+00      -1.85117E+02       0.00000E+00       0.00000E+00       2.58664E+04       0.00000E+00       7.40975E+05       0.00000E+00       5.67920E+04      -2.48108E+04       0.00000E+00      -2.40156E+01       0.00000E+00       7.46072E+05       0.00000E+00       0.00000E+00       4.12919E+03       0.00000E+00       8.10188E+04       0.00000E+00       2.50160E+06
       2380   0.59500E+02       1.24084E+04       0.00000E+00      -3.66474E+01       0.00000E+00      -8.29099E+03       0.00000E+00       0.00000E+00       1.25410E+04       0.00000E+00       9.54752E+03       0.00000E+00       5.68758E+03      -9.57240E+00       0.00000E+00      -3.63035E+03       0.00000E+00      -1.57641E+02       0.00000E+00       0.00000E+00       2.65357E+04       0.00000E+00       6.69396E+05       0.00000E+00       4.91976E+04      -2.56149E+04       0.00000E+00      -1.82367E+01       0.00000E+00       6.73983E+05       0.00000E+00       0.00000E+00       3.58653E+03       0.00000E+00       7.03282E+04       0.00000E+00       3.25102E+06
       2381   0.59525E+02       1.37714E+04       0.00000E+00      -3.07103E+01       0.00000E+00      -1.16669E+04       0.00000E+00       0.00000E+00       1.38856E+04       0.00000E+00       1.27362E+04       0.00000E+00       4.76118E+03      -8.01825E+00       0.00000E+00      -4.11067E+03       0.00000E+00      -1.28427E+02       0.00000E+00       0.00000E+00       2.70007E+04       0.00000E+00       5.93382E+05       0.00000E+00       4.10259E+04      -2.62358E+04       0.00000E+00      -1.23833E+01       0.00000E+00       5.96507E+05       0.00000E+00       0.00000E+00       3.00164E+03       0.00000E+00       5.88086E+04       0.00000E+00       4.01510E+06
       2382   0.59550E+02       1.51145E+04       0.00000E+00      -2.44097E+01       0.00000E+00      -1.51074E+04       0.00000E+00       0.00000E+00       1.52010E+04       0.00000E+00       1.59437E+04       0.00000E+00       3.77861E+03      -6.37170E+00       0.00000E+00      -4.62357E+03       0.00000E+00      -9.77934E+01       0.00000E+00       0.00000E+00       2.73220E+04       0.00000E+00       5.12601E+05       0.00000E+00       3.23730E+04      -2.67123E+04       0.00000E+00      -6.50286E+00       0.00000E+00       5.15113E+05       0.00000E+00       0.00000E+00       2.38145E+03       0.00000E+00       4.65964E+04       0.00000E+00       4.80292E+06
       2383   0.59575E+02       1.64100E+04       0.00000E+00      -1.78207E+01       0.00000E+00      -1.85066E+04       0.00000E+00       0.00000E+00       1.64755E+04       0.00000E+00       1.91332E+04       0.00000E+00       2.75144E+03      -4.65199E+00       0.00000E+00      -5.15904E+03       0.00000E+00      -6.60814E+01       0.00000E+00       0.00000E+00       2.74660E+04       0.00000E+00       4.29197E+05       0.00000E+00       2.33397E+04      -2.70283E+04       0.00000E+00      -6.41090E-01       0.00000E+00       4.30215E+05       0.00000E+00       0.00000E+00       1.73327E+03       0.00000E+00       3.38349E+04       0.00000E+00       5.59250E+06
       2384   0.59600E+02       1.76747E+04       0.00000E+00      -1.10210E+01       0.00000E+00      -2.19226E+04       0.00000E+00       0.00000E+00       1.77107E+04       0.00000E+00       2.22993E+04       0.00000E+00       1.69186E+03      -2.87939E+00       0.00000E+00      -5.71509E+03       0.00000E+00      -3.36367E+01       0.00000E+00       0.00000E+00       2.74961E+04       0.00000E+00       3.42917E+05       0.00000E+00       1.40321E+04      -2.72265E+04       0.00000E+00       5.15615E+00       0.00000E+00       3.43299E+05       0.00000E+00       0.00000E+00       1.06477E+03       0.00000E+00       2.06751E+04       0.00000E+00       6.39260E+06
       2385   0.59625E+02       1.88814E+04       0.00000E+00      -4.09153E+00       0.00000E+00      -2.52497E+04       0.00000E+00       0.00000E+00       1.88952E+04       0.00000E+00       2.54043E+04       0.00000E+00       6.12332E+02      -1.07462E+00       0.00000E+00      -6.28098E+03       0.00000E+00      -8.20371E-01       0.00000E+00       0.00000E+00       2.73809E+04       0.00000E+00       2.56014E+05       0.00000E+00       4.55887E+03      -2.72917E+04       0.00000E+00       1.08455E+01       0.00000E+00       2.54858E+05       0.00000E+00       0.00000E+00       3.83824E+02       0.00000E+00       7.27154E+03       0.00000E+00       7.18073E+06
       2386   0.59650E+02       2.00471E+04       0.00000E+00       2.88580E+00       0.00000E+00      -2.85444E+04       0.00000E+00       0.00000E+00       2.00307E+04       0.00000E+00       2.84433E+04       0.00000E+00      -4.74307E+02       7.41025E-01       0.00000E+00      -6.85424E+03       0.00000E+00       3.20102E+01       0.00000E+00       0.00000E+00       2.71851E+04       0.00000E+00       1.68182E+05       0.00000E+00      -4.96886E+03      -2.72683E+04       0.00000E+00       1.63835E+01       0.00000E+00       1.66407E+05       0.00000E+00       0.00000E+00      -3.01511E+02       0.00000E+00      -6.21723E+03       0.00000E+00       7.96525E+06
       2387   0.59675E+02       2.11447E+04       0.00000E+00       9.82816E+00       0.00000E+00      -3.17012E+04       0.00000E+00       0.00000E+00       2.11062E+04       0.00000E+00       3.13777E+04       0.00000E+00      -1.55529E+03       2.54634E+00       0.00000E+00      -7.42404E+03       0.00000E+00       6.44896E+01       0.00000E+00       0.00000E+00       2.68796E+04       0.00000E+00       8.17589E+04       0.00000E+00      -1.44399E+04      -2.71431E+04       0.00000E+00       2.17305E+01       0.00000E+00       7.84697E+04       0.00000E+00       0.00000E+00      -9.83164E+02       0.00000E+00      -1.96328E+04       0.00000E+00       8.72495E+06
       2388   0.59700E+02       2.21918E+04       0.00000E+00       1.66534E+01       0.00000E+00      -3.47785E+04       0.00000E+00       0.00000E+00       2.21235E+04       0.00000E+00       3.42016E+04       0.00000E+00      -2.61777E+03       4.32001E+00       0.00000E+00      -7.98747E+03       0.00000E+00       9.62642E+01       0.00000E+00       0.00000E+00       2.65284E+04       0.00000E+00      -3.52256E+03       0.00000E+00      -2.37429E+04      -2.69602E+04       0.00000E+00       2.68465E+01       0.00000E+00      -7.45472E+03       0.00000E+00       0.00000E+00      -1.65308E+03       0.00000E+00      -3.28165E+04       0.00000E+00       9.46689E+06
       2389   0.59725E+02       2.31617E+04       0.00000E+00       2.32805E+01       0.00000E+00      -3.76679E+04       0.00000E+00       0.00000E+00       2.30726E+04       0.00000E+00       3.68822E+04       0.00000E+00      -3.64927E+03       6.04131E+00       0.00000E+00      -8.53376E+03       0.00000E+00       1.26981E+02       0.00000E+00       0.00000E+00       2.61039E+04       0.00000E+00      -8.56117E+04       0.00000E+00      -3.27695E+04      -2.67083E+04       0.00000E+00       3.16956E+01       0.00000E+00      -9.09268E+04       0.00000E+00       0.00000E+00      -2.30336E+03       0.00000E+00      -4.56135E+04       0.00000E+00       1.01704E+07
       2390   0.59750E+02       2.40727E+04       0.00000E+00       2.96310E+01       0.00000E+00      -4.04309E+04       0.00000E+00       0.00000E+00       2.39558E+04       0.00000E+00       3.94103E+04       0.00000E+00      -4.63751E+03       7.68993E+00       0.00000E+00      -9.06027E+03       0.00000E+00       1.56304E+02       0.00000E+00       0.00000E+00       2.56691E+04       0.00000E+00      -1.64605E+05       0.00000E+00      -4.14135E+04      -2.64311E+04       0.00000E+00       3.62427E+01       0.00000E+00      -1.70476E+05       0.00000E+00       0.00000E+00      -2.92634E+03       0.00000E+00      -5.78724E+04       0.00000E+00       1.08432E+07
       2391   0.59775E+02       2.48983E+04       0.00000E+00       3.56295E+01       0.00000E+00      -4.29652E+04       0.00000E+00       0.00000E+00       2.47630E+04       0.00000E+00       4.17553E+04       0.00000E+00      -5.57090E+03       9.24661E+00       0.00000E+00      -9.55659E+03       0.00000E+00       1.83909E+02       0.00000E+00       0.00000E+00       2.51952E+04       0.00000E+00      -2.38507E+05       0.00000E+00      -4.95741E+04      -2.61125E+04       0.00000E+00       4.04566E+01       0.00000E+00      -2.45654E+05       0.00000E+00       0.00000E+00      -3.51466E+03       0.00000E+00      -6.94493E+04       0.00000E+00       1.14655E+07
       2392   0.59800E+02       2.56580E+04       0.00000E+00       4.12052E+01       0.00000E+00      -4.53308E+04       0.00000E+00       0.00000E+00       2.54976E+04       0.00000E+00       4.39117E+04       0.00000E+00      -6.43834E+03       1.06930E+01       0.00000E+00      -1.00207E+04       0.00000E+00       2.09494E+02       0.00000E+00       0.00000E+00       2.47441E+04       0.00000E+00      -3.07637E+05       0.00000E+00      -5.71555E+04      -2.57980E+04       0.00000E+00       4.43074E+01       0.00000E+00      -3.15201E+05       0.00000E+00       0.00000E+00      -4.06139E+03       0.00000E+00      -8.02072E+04       0.00000E+00       1.20455E+07
       2393   0.59825E+02       2.63250E+04       0.00000E+00       4.62918E+01       0.00000E+00      -4.74256E+04       0.00000E+00       0.00000E+00       2.61495E+04       0.00000E+00       4.58492E+04       0.00000E+00      -7.22965E+03       1.20121E+01       0.00000E+00      -1.04427E+04       0.00000E+00       2.32775E+02       0.00000E+00       0.00000E+00       2.42861E+04       0.00000E+00      -3.70010E+05       0.00000E+00      -6.40691E+04      -2.54733E+04       0.00000E+00       4.77692E+01       0.00000E+00      -3.78724E+05       0.00000E+00       0.00000E+00      -4.56008E+03       0.00000E+00      -9.00199E+04       0.00000E+00       1.25635E+07
       2394   0.59850E+02       2.69199E+04       0.00000E+00       5.08291E+01       0.00000E+00      -4.93150E+04       0.00000E+00       0.00000E+00       2.67232E+04       0.00000E+00       4.75674E+04       0.00000E+00      -7.93539E+03       1.31884E+01       0.00000E+00      -1.08216E+04       0.00000E+00       2.53499E+02       0.00000E+00       0.00000E+00       2.38797E+04       0.00000E+00      -4.26121E+05       0.00000E+00      -7.02338E+04      -2.51776E+04       0.00000E+00       5.08178E+01       0.00000E+00      -4.35132E+05       0.00000E+00       0.00000E+00      -5.00484E+03       0.00000E+00      -9.87713E+04       0.00000E+00       1.30294E+07
       2395   0.59875E+02       2.74170E+04       0.00000E+00       5.47632E+01       0.00000E+00      -5.09053E+04       0.00000E+00       0.00000E+00       2.72098E+04       0.00000E+00       4.90378E+04       0.00000E+00      -8.54733E+03       1.42082E+01       0.00000E+00      -1.11486E+04       0.00000E+00       2.71434E+02       0.00000E+00       0.00000E+00       2.34931E+04       0.00000E+00      -4.74204E+05       0.00000E+00      -7.55776E+04      -2.48949E+04       0.00000E+00       5.34330E+01       0.00000E+00      -4.84145E+05       0.00000E+00       0.00000E+00      -5.39044E+03       0.00000E+00      -1.06359E+05       0.00000E+00       1.34242E+07
       2396   0.59900E+02       2.78370E+04       0.00000E+00       5.80477E+01       0.00000E+00      -5.22607E+04       0.00000E+00       0.00000E+00       2.76139E+04       0.00000E+00       5.02639E+04       0.00000E+00      -9.05814E+03       1.50594E+01       0.00000E+00      -1.14238E+04       0.00000E+00       2.86387E+02       0.00000E+00       0.00000E+00       2.31808E+04       0.00000E+00      -5.14813E+05       0.00000E+00      -8.00377E+04      -2.46622E+04       0.00000E+00       5.55967E+01       0.00000E+00      -5.24861E+05       0.00000E+00       0.00000E+00      -5.71233E+03       0.00000E+00      -1.12692E+05       0.00000E+00       1.37595E+07
       2397   0.59925E+02       2.81558E+04       0.00000E+00       6.06436E+01       0.00000E+00      -5.32909E+04       0.00000E+00       0.00000E+00       2.79265E+04       0.00000E+00       5.12213E+04       0.00000E+00      -9.46187E+03       1.57320E+01       0.00000E+00      -1.16396E+04       0.00000E+00       2.98190E+02       0.00000E+00       0.00000E+00       2.29096E+04       0.00000E+00      -5.46384E+05       0.00000E+00      -8.35621E+04      -2.44602E+04       0.00000E+00       5.72950E+01       0.00000E+00      -5.57170E+05       0.00000E+00       0.00000E+00      -5.96671E+03       0.00000E+00      -1.17697E+05       0.00000E+00       1.40162E+07
       2398   0.59950E+02       2.83940E+04       0.00000E+00       6.25200E+01       0.00000E+00      -5.40663E+04       0.00000E+00       0.00000E+00       2.81536E+04       0.00000E+00       5.19168E+04       0.00000E+00      -9.75367E+03       1.62182E+01       0.00000E+00      -1.17974E+04       0.00000E+00       3.06716E+02       0.00000E+00       0.00000E+00       2.27302E+04       0.00000E+00      -5.69672E+05       0.00000E+00      -8.61093E+04      -2.43234E+04       0.00000E+00       5.85158E+01       0.00000E+00      -5.80349E+05       0.00000E+00       0.00000E+00      -6.15058E+03       0.00000E+00      -1.21315E+05       0.00000E+00       1.42082E+07
       2399   0.59975E+02       2.85283E+04       0.00000E+00       6.36549E+01       0.00000E+00      -5.45037E+04       0.00000E+00       0.00000E+00       2.82878E+04       0.00000E+00       5.23306E+04       0.00000E+00      -9.93017E+03       1.65122E+01       0.00000E+00      -1.18913E+04       0.00000E+00       3.11868E+02       0.00000E+00       0.00000E+00       2.26010E+04       0.00000E+00      -5.83304E+05       0.00000E+00      -8.76499E+04      -2.42279E+04       0.00000E+00       5.92520E+01       0.00000E+00      -5.94522E+05       0.00000E+00       0.00000E+00      -6.26178E+03       0.00000E+00      -1.23503E+05       0.00000E+00       1.43177E+07
       2400   0.60000E+02       2.85809E+04       0.00000E+00       6.40347E+01       0.00000E+00      -5.46756E+04       0.00000E+00       0.00000E+00       2.83349E+04       0.00000E+00       5.24749E+04       0.00000E+00      -9.98921E+03       1.66106E+01       0.00000E+00      -1.19241E+04       0.00000E+00       3.13593E+02       0.00000E+00       0.00000E+00       2.25724E+04       0.00000E+00      -5.88240E+05       0.00000E+00      -8.81652E+04      -2.42048E+04       0.00000E+00       5.94977E+01       0.00000E+00      -5.99108E+05       0.00000E+00       0.00000E+00      -6.29899E+03       0.00000E+00      -1.24235E+05       0.00000E+00       1.43589E+07

This summary file was closed on 08-Apr-2025 at 16:22:59.

