
This summary information was generated by ElastoDyn on 08-Apr-2025 at 16:22:58.


Turbine features:

            Upwind, 3-bladed rotor with rigid hub.
            The model has 6 of 24 DOFs active (enabled) at start-up.
 Enabled    Platform horizontal surge translation DOF 
 Enabled    Platform horizontal sway translation DOF 
 Enabled    Platform vertical heave translation DOF 
 Enabled    Platform roll tilt rotation DOF 
 Enabled    Platform pitch tilt rotation DOF 
 Enabled    Platform yaw rotation DOF 
 Disabled   1st tower fore-aft bending mode DOF 
 Disabled   1st tower side-to-side bending mode DOF 
 Disabled   2nd tower fore-aft bending mode DOF 
 Disabled   2nd tower side-to-side bending mode DOF 
 Disabled   Nacelle yaw DOF 
 Disabled   Rotor-furl DOF 
 Disabled   Variable speed generator DOF 
 Disabled   Drivetrain rotational-flexibility DOF 
 Disabled   Tail-furl DOF 
 Disabled   1st flapwise bending-mode DOF of blade 1 
 Disabled   1st edgewise bending-mode DOF of blade 1 
 Disabled   2nd flapwise bending-mode DOF of blade 1 
 Disabled   1st flapwise bending-mode DOF of blade 2 
 Disabled   1st edgewise bending-mode DOF of blade 2 
 Disabled   2nd flapwise bending-mode DOF of blade 2 
 Disabled   1st flapwise bending-mode DOF of blade 3 
 Disabled   1st edgewise bending-mode DOF of blade 3 
 Disabled   2nd flapwise bending-mode DOF of blade 3 


Time steps:

    Structural            (s)        0.02500000


Some calculated parameters:

    Hub-Height            (m)           150.000
    Flexible Tower Length (m)           129.495
    Flexible Blade Length (m)           117.000


Rotor mass properties:

    Rotor Mass            (kg)       394230.906
    Rotor Inertia         (kg-m^2)339285248.000
                                        Blade 1      Blade 2      Blade 3
                                        -------      -------      -------
    Mass                  (kg)        68076.969    68076.969    68076.969
    Second Mass Moment    (kg-m^2)101216664.000101216664.000101216664.000
    First Mass Moment     (kg-m)    1893112.625  1893112.625  1893112.625
    Center of Mass        (m)            27.808       27.808       27.808


Additional mass properties:

    Tower-top Mass        (kg)      1001505.875
    Tower Mass            (kg)      1262976.250
    Platform Mass         (kg)     18341100.000
    Mass Incl. Platform   (kg)     20605582.000


Interpolated tower properties:

Node  TwFract   HNodes  DHNodes  TMassDen    FAStiff    SSStiff
 (-)      (-)      (m)      (m)    (kg/m)     (Nm^2)     (Nm^2)
   1    0.010    1.295    2.590 20535.311  6.669E+12  6.669E+12
   2    0.030    3.885    2.590 20520.443  6.655E+12  6.655E+12
   3    0.050    6.475    2.590 20505.576  6.640E+12  6.640E+12
   4    0.070    9.065    2.590 20490.711  6.626E+12  6.626E+12
   5    0.090   11.655    2.590 20475.844  6.611E+12  6.611E+12
   6    0.110   14.244    2.590 20468.770  6.604E+12  6.604E+12
   7    0.130   16.834    2.590 20470.008  6.606E+12  6.606E+12
   8    0.150   19.424    2.590 20471.248  6.607E+12  6.607E+12
   9    0.170   22.014    2.590 20472.486  6.608E+12  6.608E+12
  10    0.190   24.604    2.590 20473.725  6.609E+12  6.609E+12
  11    0.210   27.194    2.590 20466.664  6.602E+12  6.602E+12
  12    0.230   29.784    2.590 20450.145  6.586E+12  6.586E+12
  13    0.250   32.374    2.590 20433.625  6.570E+12  6.570E+12
  14    0.270   34.964    2.590 20417.105  6.555E+12  6.555E+12
  15    0.290   37.554    2.590 20400.586  6.539E+12  6.539E+12
  16    0.310   40.143    2.590  7383.238  2.373E+12  2.373E+12
  17    0.330   42.733    2.590  7323.677  2.318E+12  2.318E+12
  18    0.350   45.323    2.590  7264.116  2.262E+12  2.262E+12
  19    0.370   47.913    2.590  7204.556  2.207E+12  2.207E+12
  20    0.390   50.503    2.590  7144.995  2.151E+12  2.151E+12
  21    0.410   53.093    2.590  6615.704  1.960E+12  1.960E+12
  22    0.430   55.683    2.590  6562.900  1.915E+12  1.915E+12
  23    0.450   58.273    2.590  6510.097  1.869E+12  1.869E+12
  24    0.470   60.863    2.590  6457.293  1.824E+12  1.824E+12
  25    0.490   63.453    2.590  6404.490  1.778E+12  1.778E+12
  26    0.510   66.042    2.590  5908.797  1.619E+12  1.619E+12
  27    0.530   68.632    2.590  5882.406  1.598E+12  1.598E+12
  28    0.550   71.222    2.590  5856.014  1.577E+12  1.577E+12
  29    0.570   73.812    2.590  5829.622  1.555E+12  1.555E+12
  30    0.590   76.402    2.590  5803.230  1.534E+12  1.534E+12
  31    0.610   78.992    2.590  5111.735  1.340E+12  1.340E+12
  32    0.630   81.582    2.590  5087.702  1.321E+12  1.321E+12
  33    0.650   84.172    2.590  5063.668  1.303E+12  1.303E+12
  34    0.670   86.762    2.590  5039.635  1.284E+12  1.284E+12
  35    0.690   89.352    2.590  5015.602  1.266E+12  1.266E+12
  36    0.710   91.941    2.590  4337.382  1.083E+12  1.083E+12
  37    0.730   94.531    2.590  4304.542  1.059E+12  1.059E+12
  38    0.750   97.121    2.590  4271.701  1.035E+12  1.035E+12
  39    0.770   99.711    2.590  4238.861  1.011E+12  1.011E+12
  40    0.790  102.301    2.590  4206.020  9.873E+11  9.873E+11
  41    0.810  104.891    2.590  3731.747  8.538E+11  8.538E+11
  42    0.830  107.481    2.590  3634.658  7.944E+11  7.944E+11
  43    0.850  110.071    2.590  3537.570  7.351E+11  7.351E+11
  44    0.870  112.661    2.590  3440.482  6.758E+11  6.758E+11
  45    0.890  115.251    2.590  3343.394  6.164E+11  6.164E+11
  46    0.910  117.840    2.590  3794.558  6.589E+11  6.589E+11
  47    0.930  120.430    2.590  3705.920  6.172E+11  6.172E+11
  48    0.950  123.020    2.590  3617.282  5.754E+11  5.754E+11
  49    0.970  125.610    2.590  3528.643  5.336E+11  5.336E+11
  50    0.990  128.200    2.590  3440.005  4.919E+11  4.919E+11


Interpolated blade 1 properties:

Node  BlFract   RNodes  DRNodes PitchAxis  StrcTwst  BMassDen    FlpStff    EdgStff
 (-)      (-)      (m)      (m)       (-)     (deg)    (kg/m)     (Nm^2)     (Nm^2)
   1    0.025    5.925    5.850     0.486    15.548  2771.502  1.351E+11  1.344E+11
   2    0.075   11.775    5.850     0.441    14.483  1888.691  8.204E+10  9.028E+10
   3    0.125   17.625    5.850     0.396    12.294  1344.310  4.227E+10  6.287E+10
   4    0.175   23.475    5.850     0.358     9.815   825.511  2.899E+10  4.493E+10
   5    0.225   29.325    5.850     0.331     7.817   580.589  2.132E+10  3.455E+10
   6    0.275   35.175    5.850     0.317     6.258   501.501  1.559E+10  2.954E+10
   7    0.325   41.025    5.850     0.309     4.838   482.571  1.346E+10  2.574E+10
   8    0.375   46.875    5.850     0.303     3.696   464.543  1.015E+10  2.217E+10
   9    0.425   52.725    5.850     0.297     2.794   443.712  8.194E+09  1.944E+10
  10    0.475   58.575    5.850     0.291     2.034   419.028  6.286E+09  1.689E+10
  11    0.525   64.425    5.850     0.288     1.373   394.577  4.546E+09  1.458E+10
  12    0.575   70.275    5.850     0.288     0.807   357.521  3.346E+09  1.105E+10
  13    0.625   76.125    5.850     0.291     0.314   302.819  2.412E+09  6.478E+09
  14    0.675   81.975    5.850     0.295    -0.190   255.044  1.730E+09  3.489E+09
  15    0.725   87.825    5.850     0.302    -0.848   211.647  1.103E+09  2.227E+09
  16    0.775   93.675    5.850     0.310    -1.616   158.233  6.419E+08  1.353E+09
  17    0.825   99.525    5.850     0.318    -2.119   104.519  3.449E+08  7.155E+08
  18    0.875  105.375    5.850     0.329    -2.158    66.039  1.728E+08  3.890E+08
  19    0.925  111.225    5.850     0.342    -1.979    41.966  6.943E+07  2.042E+08
  20    0.975  117.075    5.850     0.358    -1.557    22.765  1.622E+07  7.599E+07


Interpolated blade 2 properties:

Node  BlFract   RNodes  DRNodes PitchAxis  StrcTwst  BMassDen    FlpStff    EdgStff
 (-)      (-)      (m)      (m)       (-)     (deg)    (kg/m)     (Nm^2)     (Nm^2)
   1    0.025    5.925    5.850     0.486    15.548  2771.502  1.351E+11  1.344E+11
   2    0.075   11.775    5.850     0.441    14.483  1888.691  8.204E+10  9.028E+10
   3    0.125   17.625    5.850     0.396    12.294  1344.310  4.227E+10  6.287E+10
   4    0.175   23.475    5.850     0.358     9.815   825.511  2.899E+10  4.493E+10
   5    0.225   29.325    5.850     0.331     7.817   580.589  2.132E+10  3.455E+10
   6    0.275   35.175    5.850     0.317     6.258   501.501  1.559E+10  2.954E+10
   7    0.325   41.025    5.850     0.309     4.838   482.571  1.346E+10  2.574E+10
   8    0.375   46.875    5.850     0.303     3.696   464.543  1.015E+10  2.217E+10
   9    0.425   52.725    5.850     0.297     2.794   443.712  8.194E+09  1.944E+10
  10    0.475   58.575    5.850     0.291     2.034   419.028  6.286E+09  1.689E+10
  11    0.525   64.425    5.850     0.288     1.373   394.577  4.546E+09  1.458E+10
  12    0.575   70.275    5.850     0.288     0.807   357.521  3.346E+09  1.105E+10
  13    0.625   76.125    5.850     0.291     0.314   302.819  2.412E+09  6.478E+09
  14    0.675   81.975    5.850     0.295    -0.190   255.044  1.730E+09  3.489E+09
  15    0.725   87.825    5.850     0.302    -0.848   211.647  1.103E+09  2.227E+09
  16    0.775   93.675    5.850     0.310    -1.616   158.233  6.419E+08  1.353E+09
  17    0.825   99.525    5.850     0.318    -2.119   104.519  3.449E+08  7.155E+08
  18    0.875  105.375    5.850     0.329    -2.158    66.039  1.728E+08  3.890E+08
  19    0.925  111.225    5.850     0.342    -1.979    41.966  6.943E+07  2.042E+08
  20    0.975  117.075    5.850     0.358    -1.557    22.765  1.622E+07  7.599E+07


Interpolated blade 3 properties:

Node  BlFract   RNodes  DRNodes PitchAxis  StrcTwst  BMassDen    FlpStff    EdgStff
 (-)      (-)      (m)      (m)       (-)     (deg)    (kg/m)     (Nm^2)     (Nm^2)
   1    0.025    5.925    5.850     0.486    15.548  2771.502  1.351E+11  1.344E+11
   2    0.075   11.775    5.850     0.441    14.483  1888.691  8.204E+10  9.028E+10
   3    0.125   17.625    5.850     0.396    12.294  1344.310  4.227E+10  6.287E+10
   4    0.175   23.475    5.850     0.358     9.815   825.511  2.899E+10  4.493E+10
   5    0.225   29.325    5.850     0.331     7.817   580.589  2.132E+10  3.455E+10
   6    0.275   35.175    5.850     0.317     6.258   501.501  1.559E+10  2.954E+10
   7    0.325   41.025    5.850     0.309     4.838   482.571  1.346E+10  2.574E+10
   8    0.375   46.875    5.850     0.303     3.696   464.543  1.015E+10  2.217E+10
   9    0.425   52.725    5.850     0.297     2.794   443.712  8.194E+09  1.944E+10
  10    0.475   58.575    5.850     0.291     2.034   419.028  6.286E+09  1.689E+10
  11    0.525   64.425    5.850     0.288     1.373   394.577  4.546E+09  1.458E+10
  12    0.575   70.275    5.850     0.288     0.807   357.521  3.346E+09  1.105E+10
  13    0.625   76.125    5.850     0.291     0.314   302.819  2.412E+09  6.478E+09
  14    0.675   81.975    5.850     0.295    -0.190   255.044  1.730E+09  3.489E+09
  15    0.725   87.825    5.850     0.302    -0.848   211.647  1.103E+09  2.227E+09
  16    0.775   93.675    5.850     0.310    -1.616   158.233  6.419E+08  1.353E+09
  17    0.825   99.525    5.850     0.318    -2.119   104.519  3.449E+08  7.155E+08
  18    0.875  105.375    5.850     0.329    -2.158    66.039  1.728E+08  3.890E+08
  19    0.925  111.225    5.850     0.342    -1.979    41.966  6.943E+07  2.042E+08
  20    0.975  117.075    5.850     0.358    -1.557    22.765  1.622E+07  7.599E+07


Requested Outputs:


 Col   Parameter            Units               
 ---   ---------------      ---------------     
   0   Time                 (s)                 
   1   PtfmSurge            (m)                 
   2   PtfmSway             (m)                 
   3   PtfmHeave            (m)                 
   4   PtfmRoll             (deg)               
   5   PtfmPitch            (deg)               
   6   PtfmYaw              (deg)               
   7   NcIMUTAxs            (m/s^2)             
   8   NcIMUTAys            (m/s^2)             
   9   NcIMUTAzs            (m/s^2)             
  10   RotSpeed             (rpm)               
  11   RotTorq              (kN-m)              
  12   RotThrust            (kN)                
  13   BldPitch1            (deg)               
  14   GenSpeed             (rpm)               
  15   TwrBsFxt             (kN)                
  16   TwrBsFyt             (kN)                
  17   TwrBsFzt             (kN)                
  18   TwrBsMxt             (kN-m)              
  19   TwrBsMyt             (kN-m)              
  20   TwrBsMzt             (kN-m)              
  21   YawBrFxp             (kN)                
  22   YawBrFyp             (kN)                
  23   YawBrFzp             (kN)                
  24   YawBrMxp             (kN-m)              
  25   YawBrMyp             (kN-m)              
  26   YawBrMzp             (kN-m)              
  27   TwrBsFzt             (kN)                


  Requested Output Channels at each blade station:
 Col   Parameter            Units               
 ---   ---------------      ---------------     
