
 **************************************************************************************************
 OpenFAST

 Copyright (C) 2021 National Renewable Energy Laboratory
 Copyright (C) 2021 Envision Energy USA LTD

 This program is licensed under Apache License Version 2.0 and comes with ABSOLUTELY NO WARRANTY.
 See the "LICENSE" file distributed with this software for details.
 **************************************************************************************************

 OpenFAST-v2.4.0-138-g9a6c1967
 Compile Info:
  - Compiler: Intel(R) Fortran Intel(R) 64 Compiler Classic for applications running on Intel(R)
  64, Version 2021.1.2 Build 20201208_000000
  - Architecture: 64 bit
  - Precision: double
  - Date: Jan 12 2021
  - Time: 13:31:16
 Execution Info:
  - Date: 01/12/2021
  - Time: 14:08:35-0600

 OpenFAST input file heading:
     FAST Certification Test #20: NREL 5.0 MW Baseline Wind Turbine with OC3 Tripod Configuration,
     for use in offshore analysis

 Running ElastoDyn.
 Nodal outputs section of ElastoDyn input file not found or improperly formatted.
 Running AeroDyn.
 Nodal output section of AeroDyn input file not found or improperly formatted.
 Warning: Turning off Unsteady Aerodynamics because C_nalpha is 0. (node 1, blade 1)
 Warning: Turning off Unsteady Aerodynamics because C_nalpha is 0. (node 2, blade 1)
 Warning: Turning off Unsteady Aerodynamics because C_nalpha is 0. (node 3, blade 1)
 Warning: Turning off Unsteady Aerodynamics because C_nalpha is 0. (node 4, blade 1)
 Warning: Turning off Unsteady Aerodynamics because C_nalpha is 0. (node 1, blade 2)
 Warning: Turning off Unsteady Aerodynamics because C_nalpha is 0. (node 2, blade 2)
 Warning: Turning off Unsteady Aerodynamics because C_nalpha is 0. (node 3, blade 2)
 Warning: Turning off Unsteady Aerodynamics because C_nalpha is 0. (node 4, blade 2)
 Warning: Turning off Unsteady Aerodynamics because C_nalpha is 0. (node 1, blade 3)
 Warning: Turning off Unsteady Aerodynamics because C_nalpha is 0. (node 2, blade 3)
 Warning: Turning off Unsteady Aerodynamics because C_nalpha is 0. (node 3, blade 3)
 Warning: Turning off Unsteady Aerodynamics because C_nalpha is 0. (node 4, blade 3)
 Running InflowWind.
 Running ServoDyn.
 Running ServoDyn Interface for Bladed Controllers (using Intel Fortran for Linux, ).
 Using legacy Bladed DLL interface.
 Running HydroDyn.
  Generating incident wave kinematics and current time history.
 Running SubDyn.
    Calculating Internal Modal Eigenvectors
  Time: 0 of 60 seconds.

 FAST_Solution0:CalcOutputs_And_SolveForInputs:SolveOption2:SrvD_CalcOutput:DLL_controller_call:Run
 ning with torque and pitch control of the NREL offshore 5MW baseline wind turbine from DISCON.dll
 as written by J. Jonkman of NREL/NWTC for use in the IEA Annex XXIII OC3 studies.


 FAST_Solution:FAST_AdvanceStates:SrvD_UpdateStates:DLL_controller_call:BladedInterface option was
 designed for an explicit-loose coupling scheme. Using last calculated values from DLL on all
 subsequent calls until time is advanced. Warning will not be displayed again.

+                                                                                                  
+ Time: 1 of 60 seconds.  Estimated final completion at 14:29:57.
+                                                                                                  
+ Time: 2 of 60 seconds.  Estimated final completion at 14:17:41.
+                                                                                                  
+ Time: 3 of 60 seconds.  Estimated final completion at 14:17:10.
+                                                                                                  
+ Time: 4 of 60 seconds.  Estimated final completion at 14:17:06.
+                                                                                                  
+ Time: 5 of 60 seconds.  Estimated final completion at 14:17:13.
+                                                                                                  
+ Time: 6 of 60 seconds.  Estimated final completion at 14:17:19.
+                                                                                                  
+ Time: 7 of 60 seconds.  Estimated final completion at 14:17:22.
+                                                                                                  
+ Time: 8 of 60 seconds.  Estimated final completion at 14:17:50.
+                                                                                                  
+ Time: 9 of 60 seconds.  Estimated final completion at 14:18:16.
+                                                                                                  
+ Time: 10 of 60 seconds.  Estimated final completion at 14:18:27.
+                                                                                                  
+ Time: 11 of 60 seconds.  Estimated final completion at 14:18:27.
+                                                                                                  
+ Time: 12 of 60 seconds.  Estimated final completion at 14:18:16.
+                                                                                                  
+ Time: 13 of 60 seconds.  Estimated final completion at 14:18:18.
+                                                                                                  
+ Time: 14 of 60 seconds.  Estimated final completion at 14:18:12.
+                                                                                                  
+ Time: 15 of 60 seconds.  Estimated final completion at 14:18:12.
+                                                                                                  
+ Time: 16 of 60 seconds.  Estimated final completion at 14:18:31.
+                                                                                                  
+ Time: 17 of 60 seconds.  Estimated final completion at 14:18:19.
+                                                                                                  
+ Time: 18 of 60 seconds.  Estimated final completion at 14:18:35.
+                                                                                                  
+ Time: 19 of 60 seconds.  Estimated final completion at 14:18:24.
+                                                                                                  
+ Time: 20 of 60 seconds.  Estimated final completion at 14:18:41.
+                                                                                                  
+ Time: 21 of 60 seconds.  Estimated final completion at 14:18:45.
+                                                                                                  
+ Time: 22 of 60 seconds.  Estimated final completion at 14:18:37.
+                                                                                                  
+ Time: 23 of 60 seconds.  Estimated final completion at 14:18:21.
+                                                                                                  
+ Time: 24 of 60 seconds.  Estimated final completion at 14:18:36.
+                                                                                                  
+ Time: 25 of 60 seconds.  Estimated final completion at 14:18:36.
+                                                                                                  
+ Time: 26 of 60 seconds.  Estimated final completion at 14:18:49.
+                                                                                                  
+ Time: 27 of 60 seconds.  Estimated final completion at 14:18:56.
+                                                                                                  
+ Time: 28 of 60 seconds.  Estimated final completion at 14:18:42.
+                                                                                                  
+ Time: 29 of 60 seconds.  Estimated final completion at 14:18:51.
+                                                                                                  
+ Time: 30 of 60 seconds.  Estimated final completion at 14:18:34.
+                                                                                                  
+ Time: 31 of 60 seconds.  Estimated final completion at 14:18:30.
+                                                                                                  
+ Time: 32 of 60 seconds.  Estimated final completion at 14:18:35.
+                                                                                                  
+ Time: 33 of 60 seconds.  Estimated final completion at 14:18:45.
+                                                                                                  
+ Time: 34 of 60 seconds.  Estimated final completion at 14:18:44.
+                                                                                                  
+ Time: 35 of 60 seconds.  Estimated final completion at 14:18:45.
+                                                                                                  
+ Time: 36 of 60 seconds.  Estimated final completion at 14:18:38.
+                                                                                                  
+ Time: 37 of 60 seconds.  Estimated final completion at 14:18:34.
+                                                                                                  
+ Time: 38 of 60 seconds.  Estimated final completion at 14:18:38.
+                                                                                                  
+ Time: 39 of 60 seconds.  Estimated final completion at 14:18:43.
+                                                                                                  
+ Time: 40 of 60 seconds.  Estimated final completion at 14:18:42.
+                                                                                                  
+ Time: 41 of 60 seconds.  Estimated final completion at 14:18:42.
+                                                                                                  
+ Time: 42 of 60 seconds.  Estimated final completion at 14:18:57.
+                                                                                                  
+ Time: 43 of 60 seconds.  Estimated final completion at 14:18:48.
+                                                                                                  
+ Time: 44 of 60 seconds.  Estimated final completion at 14:18:46.
+                                                                                                  
+ Time: 45 of 60 seconds.  Estimated final completion at 14:18:42.
+                                                                                                  
+ Time: 46 of 60 seconds.  Estimated final completion at 14:18:44.
+                                                                                                  
+ Time: 47 of 60 seconds.  Estimated final completion at 14:18:44.
+                                                                                                  
+ Time: 48 of 60 seconds.  Estimated final completion at 14:18:56.
+                                                                                                  
+ Time: 49 of 60 seconds.  Estimated final completion at 14:18:52.
+                                                                                                  
+ Time: 50 of 60 seconds.  Estimated final completion at 14:18:56.
+                                                                                                  
+ Time: 51 of 60 seconds.  Estimated final completion at 14:18:53.
+                                                                                                  
+ Time: 52 of 60 seconds.  Estimated final completion at 14:18:47.
+                                                                                                  
+ Time: 53 of 60 seconds.  Estimated final completion at 14:18:46.
+                                                                                                  
+ Time: 54 of 60 seconds.  Estimated final completion at 14:18:48.
+                                                                                                  
+ Time: 55 of 60 seconds.  Estimated final completion at 14:18:46.
+                                                                                                  
+ Time: 56 of 60 seconds.  Estimated final completion at 14:18:46.
+                                                                                                  
+ Time: 57 of 60 seconds.  Estimated final completion at 14:18:46.
+                                                                                                  
+ Time: 58 of 60 seconds.  Estimated final completion at 14:18:47.
+                                                                                                  
+ Time: 59 of 60 seconds.  Estimated final completion at 14:18:46.
+                                                                                                  
+ Time: 60 of 60 seconds.  Estimated final completion at 14:18:46.
+                                                                                                  

  Total Real Time:       10.17 minutes
  Total CPU Time:        10.158 minutes
  Simulation CPU Time:   9.7862 minutes
  Simulated Time:        1.0001 minutes
  Time Ratio (Sim/CPU):  0.1022

  OpenFAST terminated normally.

