
 **************************************************************************************************
 OpenFAST

 Copyright (C) 2020 National Renewable Energy Laboratory
 Copyright (C) 2020 Envision Energy USA LTD

 This program is licensed under Apache License Version 2.0 and comes with ABSOLUTELY NO WARRANTY.
 See the "LICENSE" file distributed with this software for details.
 **************************************************************************************************

 OpenFAST-v2.4.0-50-g416ff436-dirty
 Compile Info:
  - Compiler: Intel(R) Fortran Intel(R) 64 Compiler for applications running on Intel(R) 64,
  Version 19.0.8.324 Build 20200220
  - Architecture: 64 bit
  - Precision: double
  - Date: Nov 06 2020
  - Time: 13:37:52
 Execution Info:
  - Date: 11/06/2020
  - Time: 14:00:35-0600

 OpenFAST input file heading:
     FAST Certification Test #20: NREL 5.0 MW Baseline Wind Turbine with OC3 Tripod Configuration,
     for use in offshore analysis

 Running ElastoDyn.
 Nodal outputs section of ElastoDyn input file not found or improperly formatted.
 Running AeroDyn.
 Nodal output section of AeroDyn input file not found or improperly formatted.
 Warning: Turning off Unsteady Aerodynamics because C_nalpha is 0. (node 1, blade 1)
 Warning: Turning off Unsteady Aerodynamics because C_nalpha is 0. (node 2, blade 1)
 Warning: Turning off Unsteady Aerodynamics because C_nalpha is 0. (node 3, blade 1)
 Warning: Turning off Unsteady Aerodynamics because C_nalpha is 0. (node 4, blade 1)
 Warning: Turning off Unsteady Aerodynamics because C_nalpha is 0. (node 1, blade 2)
 Warning: Turning off Unsteady Aerodynamics because C_nalpha is 0. (node 2, blade 2)
 Warning: Turning off Unsteady Aerodynamics because C_nalpha is 0. (node 3, blade 2)
 Warning: Turning off Unsteady Aerodynamics because C_nalpha is 0. (node 4, blade 2)
 Warning: Turning off Unsteady Aerodynamics because C_nalpha is 0. (node 1, blade 3)
 Warning: Turning off Unsteady Aerodynamics because C_nalpha is 0. (node 2, blade 3)
 Warning: Turning off Unsteady Aerodynamics because C_nalpha is 0. (node 3, blade 3)
 Warning: Turning off Unsteady Aerodynamics because C_nalpha is 0. (node 4, blade 3)
 Running InflowWind.
 Running ServoDyn.
 Running ServoDyn Interface for Bladed Controllers (using Intel Fortran for Linux, ).
 Using legacy Bladed DLL interface.
 Running HydroDyn.
  Generating incident wave kinematics and current time history.
 Running SubDyn.
    Calculating Internal Modal Eigenvectors
  Time: 0 of 60 seconds.

 FAST_Solution0:CalcOutputs_And_SolveForInputs:SolveOption2:SrvD_CalcOutput:DLL_controller_call:Run
 ning with torque and pitch control of the NREL offshore 5MW baseline wind turbine from DISCON.dll
 as written by J. Jonkman of NREL/NWTC for use in the IEA Annex XXIII OC3 studies.


 FAST_Solution:FAST_AdvanceStates:SrvD_UpdateStates:DLL_controller_call:BladedInterface option was
 designed for an explicit-loose coupling scheme. Using last calculated values from DLL on all
 subsequent calls until time is advanced. Warning will not be displayed again.

+                                                                                                  
+ Time: 1 of 60 seconds.  Estimated final completion at 14:23:45.
+                                                                                                  
+ Time: 2 of 60 seconds.  Estimated final completion at 14:10:10.
+                                                                                                  
+ Time: 3 of 60 seconds.  Estimated final completion at 14:09:43.
+                                                                                                  
+ Time: 4 of 60 seconds.  Estimated final completion at 14:09:25.
+                                                                                                  
+ Time: 5 of 60 seconds.  Estimated final completion at 14:09:16.
+                                                                                                  
+ Time: 6 of 60 seconds.  Estimated final completion at 14:09:04.
+                                                                                                  
+ Time: 7 of 60 seconds.  Estimated final completion at 14:09:18.
+                                                                                                  
+ Time: 8 of 60 seconds.  Estimated final completion at 14:09:25.
+                                                                                                  
+ Time: 9 of 60 seconds.  Estimated final completion at 14:09:55.
+                                                                                                  
+ Time: 10 of 60 seconds.  Estimated final completion at 14:09:33.
+                                                                                                  
+ Time: 11 of 60 seconds.  Estimated final completion at 14:08:57.
+                                                                                                  
+ Time: 12 of 60 seconds.  Estimated final completion at 14:09:37.
+                                                                                                  
+ Time: 13 of 60 seconds.  Estimated final completion at 14:09:49.
+                                                                                                  
+ Time: 14 of 60 seconds.  Estimated final completion at 14:08:55.
+                                                                                                  
+ Time: 15 of 60 seconds.  Estimated final completion at 14:08:58.
+                                                                                                  
+ Time: 16 of 60 seconds.  Estimated final completion at 14:09:13.
+                                                                                                  
+ Time: 17 of 60 seconds.  Estimated final completion at 14:09:06.
+                                                                                                  
+ Time: 18 of 60 seconds.  Estimated final completion at 14:09:17.
+                                                                                                  
+ Time: 19 of 60 seconds.  Estimated final completion at 14:09:18.
+                                                                                                  
+ Time: 20 of 60 seconds.  Estimated final completion at 14:09:36.
+                                                                                                  
+ Time: 21 of 60 seconds.  Estimated final completion at 14:09:23.
+                                                                                                  
+ Time: 22 of 60 seconds.  Estimated final completion at 14:08:52.
+                                                                                                  
+ Time: 23 of 60 seconds.  Estimated final completion at 14:09:00.
+                                                                                                  
+ Time: 24 of 60 seconds.  Estimated final completion at 14:08:59.
+                                                                                                  
+ Time: 25 of 60 seconds.  Estimated final completion at 14:09:13.
+                                                                                                  
+ Time: 26 of 60 seconds.  Estimated final completion at 14:09:01.
+                                                                                                  
+ Time: 27 of 60 seconds.  Estimated final completion at 14:09:22.
+                                                                                                  
+ Time: 28 of 60 seconds.  Estimated final completion at 14:09:34.
+                                                                                                  
+ Time: 29 of 60 seconds.  Estimated final completion at 14:09:33.
+                                                                                                  
+ Time: 30 of 60 seconds.  Estimated final completion at 14:09:32.
+                                                                                                  
+ Time: 31 of 60 seconds.  Estimated final completion at 14:09:34.
+                                                                                                  
+ Time: 32 of 60 seconds.  Estimated final completion at 14:09:33.
+                                                                                                  
+ Time: 33 of 60 seconds.  Estimated final completion at 14:09:44.
+                                                                                                  
+ Time: 34 of 60 seconds.  Estimated final completion at 14:09:43.
+                                                                                                  
+ Time: 35 of 60 seconds.  Estimated final completion at 14:09:52.
+                                                                                                  
+ Time: 36 of 60 seconds.  Estimated final completion at 14:09:44.
+                                                                                                  
+ Time: 37 of 60 seconds.  Estimated final completion at 14:09:44.
+                                                                                                  
+ Time: 38 of 60 seconds.  Estimated final completion at 14:09:56.
+                                                                                                  
+ Time: 39 of 60 seconds.  Estimated final completion at 14:09:53.
+                                                                                                  
+ Time: 40 of 60 seconds.  Estimated final completion at 14:09:52.
+                                                                                                  
+ Time: 41 of 60 seconds.  Estimated final completion at 14:09:47.
+                                                                                                  
+ Time: 42 of 60 seconds.  Estimated final completion at 14:09:47.
+                                                                                                  
+ Time: 43 of 60 seconds.  Estimated final completion at 14:09:46.
+                                                                                                  
+ Time: 44 of 60 seconds.  Estimated final completion at 14:09:35.
+                                                                                                  
+ Time: 45 of 60 seconds.  Estimated final completion at 14:09:36.
+                                                                                                  
+ Time: 46 of 60 seconds.  Estimated final completion at 14:09:36.
+                                                                                                  
+ Time: 47 of 60 seconds.  Estimated final completion at 14:09:36.
+                                                                                                  
+ Time: 48 of 60 seconds.  Estimated final completion at 14:09:35.
+                                                                                                  
+ Time: 49 of 60 seconds.  Estimated final completion at 14:09:36.
+                                                                                                  
+ Time: 50 of 60 seconds.  Estimated final completion at 14:09:37.
+                                                                                                  
+ Time: 51 of 60 seconds.  Estimated final completion at 14:09:35.
+                                                                                                  
+ Time: 52 of 60 seconds.  Estimated final completion at 14:09:36.
+                                                                                                  
+ Time: 53 of 60 seconds.  Estimated final completion at 14:09:35.
+                                                                                                  
+ Time: 54 of 60 seconds.  Estimated final completion at 14:09:36.
+                                                                                                  
+ Time: 55 of 60 seconds.  Estimated final completion at 14:09:35.
+                                                                                                  
+ Time: 56 of 60 seconds.  Estimated final completion at 14:09:35.
+                                                                                                  
+ Time: 57 of 60 seconds.  Estimated final completion at 14:09:35.
+                                                                                                  
+ Time: 58 of 60 seconds.  Estimated final completion at 14:09:35.
+                                                                                                  
+ Time: 59 of 60 seconds.  Estimated final completion at 14:09:35.
+                                                                                                  
+ Time: 60 of 60 seconds.  Estimated final completion at 14:09:35.
+                                                                                                  

  Total Real Time:       9.0039 minutes
  Total CPU Time:        8.9932 minutes
  Simulation CPU Time:   8.6203 minutes
  Simulated Time:        1.0001 minutes
  Time Ratio (Sim/CPU):  0.11602

  OpenFAST terminated normally.

