
 **************************************************************************************************
 OpenFAST

 Copyright (C) 2022 National Renewable Energy Laboratory
 Copyright (C) 2022 Envision Energy USA LTD

 This program is licensed under Apache License Version 2.0 and comes with ABSOLUTELY NO WARRANTY.
 See the "LICENSE" file distributed with this software for details.
 **************************************************************************************************

 OpenFAST-v2.0.0-2969-gb31de164
 Compile Info:
  - Compiler: Intel(R) Fortran Intel(R) 64 Compiler Classic for applications running on Intel(R)
  64, Version 2021.1 Build 20201112_000000
  - Architecture: 64 bit
  - Precision: double
  - OpenMP: No
  - Date: Jul 06 2022
  - Time: 12:42:05
 Execution Info:
  - Date: 07/06/2022
  - Time: 12:54:32-0500

 OpenFAST input file heading:
     FAST Certification Test #20: NREL 5.0 MW Baseline Wind Turbine with OC3 Tripod Configuration,
     for use in offshore analysis

 Running ElastoDyn.
 Nodal outputs section of ElastoDyn input file not found or improperly formatted.
 Running AeroDyn.
 AD15 Nodal Outputs: Nodal output section of AeroDyn input file not found or improperly formatted.
 Skipping nodal outputs.
 Warning: Turning off Unsteady Aerodynamics because UA parameters are not included in airfoil
 (airfoil has likely has constant polars). (node 1, blade 1)
 Warning: Turning off Unsteady Aerodynamics because UA parameters are not included in airfoil
 (airfoil has likely has constant polars). (node 2, blade 1)
 Warning: Turning off Unsteady Aerodynamics because UA parameters are not included in airfoil
 (airfoil has likely has constant polars). (node 3, blade 1)
 Warning: Turning off Unsteady Aerodynamics because UA parameters are not included in airfoil
 (airfoil has likely has constant polars). (node 4, blade 1)
 Warning: Turning off Unsteady Aerodynamics because UA parameters are not included in airfoil
 (airfoil has likely has constant polars). (node 1, blade 2)
 Warning: Turning off Unsteady Aerodynamics because UA parameters are not included in airfoil
 (airfoil has likely has constant polars). (node 2, blade 2)
 Warning: Turning off Unsteady Aerodynamics because UA parameters are not included in airfoil
 (airfoil has likely has constant polars). (node 3, blade 2)
 Warning: Turning off Unsteady Aerodynamics because UA parameters are not included in airfoil
 (airfoil has likely has constant polars). (node 4, blade 2)
 Warning: Turning off Unsteady Aerodynamics because UA parameters are not included in airfoil
 (airfoil has likely has constant polars). (node 1, blade 3)
 Warning: Turning off Unsteady Aerodynamics because UA parameters are not included in airfoil
 (airfoil has likely has constant polars). (node 2, blade 3)
 Warning: Turning off Unsteady Aerodynamics because UA parameters are not included in airfoil
 (airfoil has likely has constant polars). (node 3, blade 3)
 Warning: Turning off Unsteady Aerodynamics because UA parameters are not included in airfoil
 (airfoil has likely has constant polars). (node 4, blade 3)
 Running InflowWind.
 Running HydroDyn.
   WARNING:  The requested output channel is invalid: M1N1FAxi
   WARNING:  The requested output channel is invalid: M1N1FAzi
  Generating incident wave kinematics and current time history.
 Running SubDyn.
    Fixed bottom case detected
    Performing Craig-Bampton reduction 948 DOFs -> 12 modes + 6 DOFs
    Using static improvement method for gravity and ext. loads
    SubDyn recommended dt: 0.00782 - Current dt: 0.00800 - Max frequency:    6.396
    Calculating Full System Modes for output files
    Exporting Summary file
 Running ServoDyn.
 Running ServoDyn Interface for Bladed Controllers (using Intel Fortran for Linux, ).
 Using legacy Bladed DLL interface.

 FAST_InitializeAll:HydroDyn_Init:HydroDynInput_ProcessInitData: A requested output channel is
 invalid

  Time: 0 of 60 seconds.

 FAST_Solution:FAST_AdvanceStates:SrvD_UpdateStates:DLL_controller_call:BladedInterface option was
 designed for an explicit-loose coupling scheme. Using last calculated values from DLL on all
 subsequent calls until time is advanced. Warning will not be displayed again.

+                                                                                                  
+ Time: 1 of 60 seconds.  Estimated final completion at 13:11:41.
+                                                                                                  
+ Time: 2 of 60 seconds.  Estimated final completion at 13:02:14.
+                                                                                                  
+ Time: 3 of 60 seconds.  Estimated final completion at 13:02:15.
+                                                                                                  
+ Time: 4 of 60 seconds.  Estimated final completion at 13:02:51.
+                                                                                                  
+ Time: 5 of 60 seconds.  Estimated final completion at 13:02:57.
+                                                                                                  
+ Time: 6 of 60 seconds.  Estimated final completion at 13:02:56.
+                                                                                                  
+ Time: 7 of 60 seconds.  Estimated final completion at 13:02:50.
+                                                                                                  
+ Time: 8 of 60 seconds.  Estimated final completion at 13:02:50.
+                                                                                                  
+ Time: 9 of 60 seconds.  Estimated final completion at 13:02:57.
+                                                                                                  
+ Time: 10 of 60 seconds.  Estimated final completion at 13:03:15.
+                                                                                                  
+ Time: 11 of 60 seconds.  Estimated final completion at 13:03:25.
+                                                                                                  
+ Time: 12 of 60 seconds.  Estimated final completion at 13:02:56.
+                                                                                                  
+ Time: 13 of 60 seconds.  Estimated final completion at 13:02:58.
+                                                                                                  
+ Time: 14 of 60 seconds.  Estimated final completion at 13:02:51.
+                                                                                                  
+ Time: 15 of 60 seconds.  Estimated final completion at 13:03:05.
+                                                                                                  
+ Time: 16 of 60 seconds.  Estimated final completion at 13:03:04.
+                                                                                                  
+ Time: 17 of 60 seconds.  Estimated final completion at 13:03:07.
+                                                                                                  
+ Time: 18 of 60 seconds.  Estimated final completion at 13:03:11.
+                                                                                                  
+ Time: 19 of 60 seconds.  Estimated final completion at 13:03:23.
+                                                                                                  
+ Time: 20 of 60 seconds.  Estimated final completion at 13:03:18.
+                                                                                                  
+ Time: 21 of 60 seconds.  Estimated final completion at 13:03:01.
+                                                                                                  
+ Time: 22 of 60 seconds.  Estimated final completion at 13:02:51.
+                                                                                                  
+ Time: 23 of 60 seconds.  Estimated final completion at 13:02:57.
+                                                                                                  
+ Time: 24 of 60 seconds.  Estimated final completion at 13:03:07.
+                                                                                                  
+ Time: 25 of 60 seconds.  Estimated final completion at 13:03:07.
+                                                                                                  
+ Time: 26 of 60 seconds.  Estimated final completion at 13:03:15.
+                                                                                                  
+ Time: 27 of 60 seconds.  Estimated final completion at 13:02:57.
+                                                                                                  
+ Time: 28 of 60 seconds.  Estimated final completion at 13:02:55.
+                                                                                                  
+ Time: 29 of 60 seconds.  Estimated final completion at 13:03:13.
+                                                                                                  
+ Time: 30 of 60 seconds.  Estimated final completion at 13:02:55.
+                                                                                                  
+ Time: 31 of 60 seconds.  Estimated final completion at 13:02:60.
+                                                                                                  
+ Time: 32 of 60 seconds.  Estimated final completion at 13:02:59.
+                                                                                                  
+ Time: 33 of 60 seconds.  Estimated final completion at 13:03:00.
+                                                                                                  
+ Time: 34 of 60 seconds.  Estimated final completion at 13:02:59.
+                                                                                                  
+ Time: 35 of 60 seconds.  Estimated final completion at 13:02:58.
+                                                                                                  
+ Time: 36 of 60 seconds.  Estimated final completion at 13:03:07.
+                                                                                                  
+ Time: 37 of 60 seconds.  Estimated final completion at 13:02:59.
+                                                                                                  
+ Time: 38 of 60 seconds.  Estimated final completion at 13:02:56.
+                                                                                                  
+ Time: 39 of 60 seconds.  Estimated final completion at 13:03:06.
+                                                                                                  
+ Time: 40 of 60 seconds.  Estimated final completion at 13:03:00.
+                                                                                                  
+ Time: 41 of 60 seconds.  Estimated final completion at 13:03:06.
+                                                                                                  
+ Time: 42 of 60 seconds.  Estimated final completion at 13:02:59.
+                                                                                                  
+ Time: 43 of 60 seconds.  Estimated final completion at 13:02:57.
+                                                                                                  
+ Time: 44 of 60 seconds.  Estimated final completion at 13:03:01.
+                                                                                                  
+ Time: 45 of 60 seconds.  Estimated final completion at 13:03:03.
+                                                                                                  
+ Time: 46 of 60 seconds.  Estimated final completion at 13:03:04.
+                                                                                                  
+ Time: 47 of 60 seconds.  Estimated final completion at 13:03:02.
+                                                                                                  
+ Time: 48 of 60 seconds.  Estimated final completion at 13:02:58.
+                                                                                                  
+ Time: 49 of 60 seconds.  Estimated final completion at 13:03:06.
+                                                                                                  
+ Time: 50 of 60 seconds.  Estimated final completion at 13:03:02.
+                                                                                                  
+ Time: 51 of 60 seconds.  Estimated final completion at 13:03:08.
+                                                                                                  
+ Time: 52 of 60 seconds.  Estimated final completion at 13:03:02.
+                                                                                                  
+ Time: 53 of 60 seconds.  Estimated final completion at 13:02:60.
+                                                                                                  
+ Time: 54 of 60 seconds.  Estimated final completion at 13:03:00.
+                                                                                                  
+ Time: 55 of 60 seconds.  Estimated final completion at 13:02:60.
+                                                                                                  
+ Time: 56 of 60 seconds.  Estimated final completion at 13:02:60.
+                                                                                                  
+ Time: 57 of 60 seconds.  Estimated final completion at 13:03:02.
+                                                                                                  
+ Time: 58 of 60 seconds.  Estimated final completion at 13:03:00.
+                                                                                                  
+ Time: 59 of 60 seconds.  Estimated final completion at 13:03:01.
+                                                                                                  
+ Time: 60 of 60 seconds.  Estimated final completion at 13:03:01.
+                                                                                                  

  Total Real Time:       8.4661 minutes
  Total CPU Time:        8.4656 minutes
  Simulation CPU Time:   8.1345 minutes
  Simulated Time:        1.0001 minutes
  Time Ratio (Sim/CPU):  0.12295

  OpenFAST terminated normally.

