
This summary file was generated by TurbSim (from OpenFAST-HEAD-HASH-NOTFOUND) on 07-Apr-2023 at 12:58:00.


Runtime Options:

     13428  Random seed #1
    RANLUX  Type of random number generator
         F  Output binary HH turbulence parameters?
         F  Output formatted turbulence parameters?
         F  Output AeroDyn HH files?
         T  Output AeroDyn FF files?
         F  Output BLADED FF files?
         T  Output tower data?
         F  Output HAWC FF files?
         F  Output formatted FF files?
         F  Output coherent turbulence time step file?
 0 -  NONE  IEC turbulence models scaled to exact specified standard deviation


Turbine/Model Specifications:

        31  Vertical grid-point matrix dimension
        31  Horizontal grid-point matrix dimension
     0.050  Time step [seconds]
     1.000  Analysis time [seconds]
     1.000  Usable output time [seconds]
   110.000  Hub height [m]
   125.000  Grid height [m]
   125.000  Grid width [m]
     0.000  Vertical flow angle [degrees]
     0.000  Horizontal flow angle [degrees]


Meteorological Boundary Conditions:

    IECKAI  IEC Kaimal spectral model
         1  IEC standard: IEC 61400-1 Ed. 3: 2005
         B  IEC turbulence characteristic
       NTM  IEC Normal Turbulence Model
       N/A  IEC Extreme Turbulence Model (ETM) "c" parameter [m/s]
       PL   Wind profile type
    90.000  Reference height [m]
    12.000  Reference wind speed [m/s]
       N/A  Jet height [m]
     0.200  Power law exponent
     0.030  Surface roughness length [m]


Non-IEC Meteorological Boundary Conditions:

       N/A  Site latitude [degrees]
       N/A  Gradient Richardson number
       N/A  Friction or shear velocity [m/s]
       N/A  Mixing layer depth [m]
       N/A  Mean hub u'w' Reynolds stress
       N/A  Mean hub u'v' Reynolds stress
       N/A  Mean hub v'w' Reynolds stress


Spatial Coherence Models:

       IEC  u-component coherence model
      NONE  v-component coherence model
      NONE  w-component coherence model
(   12.000, 0.353E-03)  u-component coherence parameters
                   N/A  v-component coherence parameters
                   N/A  w-component coherence parameters
       N/A  Coherence exponent


You have requested that the following file(s) be generated:

   wind_twr.bts (AeroDyn/TurbSim full-field wind file)


Turbulence Simulation Scaling Parameter Summary:

   Turbulence model used                            =  IEC Kaimal
   Turbulence characteristic                        =  B
   IEC turbulence type                              =  Normal Turbulence Model
   IEC standard                                     =  IEC 61400-1 Ed. 3: 2005
   Mean wind speed at hub height                    =   12.491 m/s
   Expected value of turbulence intensity at 15 m/s =   14.000%
   Characteristic value of standard deviation       =    2.096 m/s
   Turbulence scale                                 =   42.000 m
   u-component integral scale                       =  340.200 m
   Coherency scale                                  =  340.200 m
   Characteristic value of hub turbulence intensity =   16.776%
   Gradient Richardson number                       =    0.000

   Wind profile type                                =  Power law
   Power law exponent                               =    0.200
   Mean shear across rotor disk                     =    0.025 (m/s)/m
   Assumed rotor diameter                           =  125.000 m
   Surface roughness length                         =    0.030 m

   Nyquist frequency of turbulent wind field        =   10.000 Hz

   Number of time steps in the FFT                  =      224
   Number of time steps output                      =      221
   Number of points simulated                       =      972


Mean Flow Angles:

   Vertical   =   0.0 degrees
   Horizontal =   0.0 degrees

Mean Wind Speed Profile:

   Height    Wind Speed   Horizontal Angle  Vertical Angle  U-comp (X)   V-comp (Y)   W-comp (Z)
     (m)        (m/s)         (degrees)       (degrees)       (m/s)        (m/s)        (m/s)   
   ------    ----------   ----------------  --------------  ----------   ----------   ----------
    172.5       13.67            0.00            0.00         13.67         0.00         0.00
    168.3       13.60            0.00            0.00         13.60         0.00         0.00
    164.2       13.53            0.00            0.00         13.53         0.00         0.00
    160.0       13.46            0.00            0.00         13.46         0.00         0.00
    155.8       13.39            0.00            0.00         13.39         0.00         0.00
    151.7       13.32            0.00            0.00         13.32         0.00         0.00
    147.5       13.25            0.00            0.00         13.25         0.00         0.00
    143.3       13.17            0.00            0.00         13.17         0.00         0.00
    139.2       13.09            0.00            0.00         13.09         0.00         0.00
    135.0       13.01            0.00            0.00         13.01         0.00         0.00
    130.8       12.93            0.00            0.00         12.93         0.00         0.00
    126.7       12.85            0.00            0.00         12.85         0.00         0.00
    122.5       12.76            0.00            0.00         12.76         0.00         0.00
    118.3       12.68            0.00            0.00         12.68         0.00         0.00
    114.2       12.58            0.00            0.00         12.58         0.00         0.00
    110.0       12.49            0.00            0.00         12.49         0.00         0.00
    105.8       12.40            0.00            0.00         12.40         0.00         0.00
    101.7       12.30            0.00            0.00         12.30         0.00         0.00
     97.5       12.19            0.00            0.00         12.19         0.00         0.00
     93.3       12.09            0.00            0.00         12.09         0.00         0.00
     89.2       11.98            0.00            0.00         11.98         0.00         0.00
     85.0       11.86            0.00            0.00         11.86         0.00         0.00
     80.8       11.74            0.00            0.00         11.74         0.00         0.00
     76.7       11.62            0.00            0.00         11.62         0.00         0.00
     72.5       11.49            0.00            0.00         11.49         0.00         0.00
     68.3       11.36            0.00            0.00         11.36         0.00         0.00
     64.2       11.21            0.00            0.00         11.21         0.00         0.00
     60.0       11.07            0.00            0.00         11.07         0.00         0.00
     55.8       10.91            0.00            0.00         10.91         0.00         0.00
     51.7       10.74            0.00            0.00         10.74         0.00         0.00
     47.5       10.56            0.00            0.00         10.56         0.00         0.00
     43.3       10.37            0.00            0.00         10.37         0.00         0.00
     39.2       10.16            0.00            0.00         10.16         0.00         0.00
     35.0        9.93            0.00            0.00          9.93         0.00         0.00
     30.8        9.69            0.00            0.00          9.69         0.00         0.00
     26.7        9.41            0.00            0.00          9.41         0.00         0.00
     22.5        9.09            0.00            0.00          9.09         0.00         0.00
     18.3        8.73            0.00            0.00          8.73         0.00         0.00
     14.2        8.29            0.00            0.00          8.29         0.00         0.00
     10.0        7.73            0.00            0.00          7.73         0.00         0.00
      5.8        6.94            0.00            0.00          6.94         0.00         0.00
      1.7        5.40            0.00            0.00          5.40         0.00         0.00


Harvested Random Seeds after Generation of the Random Numbers:

      3034584 K 1
            0 K 2


Hub-Height Simulated Turbulence Statistical Summary:

   Type of Wind        Min (m/s)   Mean (m/s)    Max (m/s)  Sigma (m/s)       TI (%)
   ----------------    ---------   ----------    ---------  -----------       ------
   Longitudinal (u)        10.94        12.49        14.70        0.779        6.237
   Lateral (v)             -2.39         0.00         2.14        1.054        8.440
   Vertical (w)            -1.98        -0.00         2.10        0.863        6.906
   U component             10.94        12.49        14.70        0.779        6.237
   V component             -2.39         0.00         2.14        1.054        8.440
   W component             -1.98        -0.00         2.10        0.863        6.906
   Horizontal (U&V)        11.04        12.54        14.71        0.786        6.269
   Total                   11.05        12.57        14.72        0.782        6.222

                       Min Reynolds     Mean Reynolds    Max Reynolds    Correlation
   Product             Stress (m/s)^2   Stress (m/s)^2   Stress (m/s)^2  Coefficient
   ----------------    --------------   --------------   --------------  -----------
   u'w'                     -3.393            -0.263             2.085        -0.391
   u'v'                     -3.215            -0.384             1.271        -0.468
   v'w'                     -2.581             0.298             2.977         0.328


   Friction Velocity (Ustar)  =      0.512 m/s
   Maximum Instantaneous TKE  =      4.461 (m/s)^2
   Maximum Instantaneous CTKE =      2.533 (m/s)^2


Grid Point Variance Summary:

   Y-coord  -62.50  -58.33  -54.17  -50.00  -45.83  -41.67  -37.50  -33.33  -29.17  -25.00  -20.83  -16.67  -12.50   -8.33   -4.17    0.00    4.17    8.33   12.50   16.67   20.83   25.00   29.17   33.33   37.50   41.67   45.83   50.00   54.17   58.33   62.50

   Height   Standard deviation at grid points for the u component:
   172.50    1.094   0.965   1.100   0.734   0.715   0.849   0.827   0.680   0.683   0.770   0.809   0.759   0.678   0.625   0.625   0.871   0.911   0.655   0.903   1.225   1.231   1.260   0.883   0.980   0.791   0.854   1.217   0.823   0.691   0.981   1.062
   168.33    0.828   1.071   0.840   1.060   0.837   0.961   0.723   0.711   0.780   0.798   0.696   0.712   1.084   1.004   0.980   0.886   0.854   0.689   0.833   1.094   1.157   1.098   1.154   0.922   0.940   0.821   0.936   0.886   0.893   0.806   1.115
   164.17    1.242   0.856   0.947   0.881   1.114   0.936   1.030   1.035   0.685   0.619   0.721   0.824   1.056   1.054   0.749   0.727   0.824   0.944   0.783   0.911   1.129   1.386   0.868   0.892   0.827   0.790   0.963   0.653   0.750   0.777   0.913
   160.00    0.965   1.271   1.590   1.639   1.459   1.107   0.987   1.033   0.836   0.935   0.794   1.037   0.789   0.826   0.798   0.736   1.045   1.269   1.292   0.939   1.114   1.127   0.917   0.807   0.584   0.777   0.911   0.789   0.979   1.028   0.895
   155.83    1.047   1.431   1.614   1.466   1.184   0.834   0.796   0.725   0.707   0.709   0.765   0.984   1.179   1.435   0.850   1.078   0.859   1.023   1.190   0.770   0.822   0.741   0.781   0.905   0.678   0.746   0.790   0.845   0.744   0.879   1.070
   151.67    1.128   1.113   1.474   0.984   1.326   1.235   1.285   0.950   0.735   1.010   0.811   0.942   1.053   1.038   1.066   1.027   1.010   0.911   0.985   1.201   0.727   0.790   0.599   0.785   0.874   0.671   0.857   1.080   1.128   0.831   0.848
   147.50    1.037   0.781   1.257   1.322   1.186   0.909   1.147   1.263   0.677   0.872   1.119   0.827   0.998   1.050   0.844   0.871   0.810   0.704   0.915   0.895   1.081   0.933   0.906   0.926   0.814   0.607   0.909   0.845   0.928   0.783   0.920
   143.33    1.117   1.215   1.223   1.109   0.768   0.968   1.003   0.902   1.162   0.953   1.067   0.760   0.891   0.805   0.925   0.899   0.726   0.960   1.037   1.016   1.035   0.762   0.834   1.025   0.880   0.999   1.127   0.772   0.890   0.990   0.949
   139.17    0.961   0.989   0.714   0.677   1.013   0.794   0.835   0.886   0.999   1.008   0.950   1.177   1.459   1.175   1.164   0.784   0.976   0.872   0.940   1.170   0.696   0.962   1.126   1.130   0.743   0.809   0.815   0.797   0.662   0.933   0.818
   135.00    0.876   0.981   0.705   0.970   0.910   0.822   1.011   0.905   1.180   0.889   0.958   0.981   1.240   1.199   1.009   1.157   1.229   1.217   0.971   0.907   0.806   0.734   0.778   0.881   0.972   0.773   0.716   0.831   0.922   0.868   0.820
   130.83    0.960   0.793   0.865   0.869   0.794   0.733   0.863   1.087   1.256   1.047   0.992   1.163   1.272   1.479   1.137   0.988   1.110   1.190   0.877   0.886   0.928   1.085   0.695   0.906   1.008   1.219   0.713   0.831   0.807   0.639   0.836
   126.67    0.760   0.830   0.921   0.777   0.865   1.036   0.878   0.837   1.023   1.179   0.779   1.208   1.041   1.074   1.356   1.394   1.169   0.847   1.093   1.261   0.841   1.200   0.830   0.686   1.136   1.018   0.931   0.767   0.708   0.644   0.813
   122.50    0.721   0.966   0.912   1.059   0.879   1.016   0.939   0.830   0.878   0.607   1.041   1.272   1.171   1.336   1.095   1.099   0.845   0.787   0.937   0.911   1.046   1.073   0.756   1.050   1.276   1.139   0.769   0.949   0.844   0.911   0.741
   118.33    1.218   0.663   0.955   0.848   1.049   1.149   0.748   0.809   0.677   0.786   0.793   1.075   0.702   0.830   0.862   0.854   0.919   0.929   0.686   0.977   0.883   0.813   0.578   0.950   1.314   1.252   0.652   0.823   1.048   1.057   1.140
   114.17    1.252   0.925   1.040   0.764   0.953   1.125   0.644   0.744   0.637   0.838   0.726   0.908   0.752   0.890   0.924   0.823   0.824   0.882   0.843   0.992   1.182   0.890   0.800   0.782   1.209   1.485   0.962   0.770   0.734   0.734   1.105
   110.00    1.347   1.158   1.085   1.057   0.825   0.895   0.764   0.989   0.772   0.839   0.841   1.025   1.156   0.743   0.685   0.779   0.842   0.920   0.845   0.946   1.024   1.039   0.734   0.828   1.115   1.225   1.265   0.933   1.037   1.121   1.056
   105.83    1.186   1.163   0.809   1.165   1.230   1.410   0.905   0.948   0.895   0.745   0.678   1.001   1.178   0.736   1.004   0.666   0.794   1.043   0.905   0.959   1.162   0.950   0.748   0.720   1.108   0.937   0.991   1.127   0.887   0.974   0.684
   101.67    0.871   0.989   1.059   0.865   1.401   1.374   0.875   0.837   0.867   0.910   0.698   0.926   1.240   0.960   1.279   1.019   1.052   0.819   0.799   0.838   1.010   0.934   0.746   1.036   0.848   0.868   0.821   0.957   1.120   1.269   0.950
    97.50    0.703   0.938   1.000   1.150   1.321   1.117   0.870   0.868   1.117   1.026   1.253   0.947   0.886   1.168   1.151   1.248   1.146   0.852   0.836   0.875   0.930   0.959   0.747   0.851   0.831   0.889   0.867   1.010   0.877   0.975   0.940
    93.33    0.982   0.724   0.880   1.003   0.993   0.774   0.791   0.680   0.810   0.823   0.918   1.237   0.880   1.163   0.831   0.979   0.678   0.902   0.793   1.238   1.178   1.072   0.706   1.055   0.861   1.101   0.991   1.034   1.173   0.866   0.978
    89.17    0.907   0.957   1.090   1.037   0.717   0.698   0.838   0.838   0.648   0.654   0.799   0.818   1.072   1.259   1.009   0.945   0.844   1.136   0.942   1.116   1.292   1.253   0.948   1.026   0.774   1.194   1.656   1.696   1.454   1.034   1.214
    85.00    0.820   0.775   1.152   0.870   0.754   0.734   0.893   0.774   0.870   0.993   0.803   0.738   0.819   0.800   0.965   1.033   0.732   1.125   0.818   1.033   0.964   1.014   0.895   1.062   0.874   0.884   1.349   1.624   1.011   1.079   1.039
    80.83    0.829   1.087   1.184   0.792   0.625   0.693   0.845   1.087   1.294   0.888   0.977   0.680   0.716   0.723   0.799   0.904   0.778   0.770   0.883   1.131   1.210   0.776   0.806   0.873   0.907   0.911   1.313   1.476   1.166   1.330   1.021
    76.67    1.078   0.847   1.131   1.068   1.034   1.034   0.761   0.732   0.916   0.987   0.896   0.820   0.892   0.939   0.804   0.816   0.740   0.688   0.811   1.030   1.234   1.407   0.981   0.918   0.949   0.968   0.985   1.315   1.705   1.135   1.284
    72.50    1.118   0.981   0.804   1.118   1.102   1.259   0.739   0.830   0.968   0.958   1.002   0.757   0.842   0.730   0.695   0.846   0.720   0.844   1.025   1.112   1.158   1.564   0.877   0.774   0.814   0.807   0.674   0.992   1.458   1.181   1.564
    68.33    0.821   0.841   0.999   1.275   1.329   1.255   0.783   0.797   0.855   0.688   0.860   0.894   0.690   1.030   0.789   0.659   0.910   0.685   1.024   1.313   1.511   1.578   1.277   0.821   0.847   0.795   0.779   0.946   1.200   1.377   1.516
    64.17    0.924   0.943   0.947   1.257   1.328   1.112   0.808   0.882   0.674   0.873   0.969   1.037   1.138   0.993   0.844   0.753   0.751   1.001   0.812   0.888   1.140   1.414   0.936   1.100   0.737   0.796   1.043   1.058   1.112   1.113   1.141
    60.00    1.148   0.876   0.907   1.115   1.330   1.553   1.383   0.897   0.699   0.859   1.021   1.141   1.297   0.757   0.697   0.855   0.983   1.008   0.998   1.146   0.897   0.952   1.196   1.101   0.848   0.798   1.037   1.130   1.211   1.013   1.086
    55.83    0.969   0.792   0.738   0.916   1.244   1.429   1.445   1.463   0.877   0.979   0.770   0.863   1.188   0.782   0.779   0.782   0.677   0.798   0.965   1.131   0.977   0.850   0.818   0.958   0.842   0.866   0.928   0.976   1.164   0.592   0.807
    51.67    0.749   0.857   0.767   0.887   0.822   0.977   1.114   1.123   0.900   1.178   0.872   1.092   0.908   0.720   0.760   0.723   0.892   1.241   0.932   0.979   0.963   0.809   0.883   0.691   0.650   0.627   0.731   0.812   1.140   0.765   0.811
    47.50    0.971   0.856   0.688   0.829   0.665   0.881   0.864   1.040   0.970   1.131   0.736   0.903   0.828   0.865   0.811   0.903   1.165   0.893   1.073   0.810   0.838   0.825   0.930   1.069   1.078   1.085   1.042   0.716   0.948   0.855   0.948

   Height   Standard deviation at grid points for the v component:
   172.50    1.054   1.054   1.054   1.054   1.054   1.054   1.054   1.054   1.054   1.054   1.054   1.054   1.054   1.054   1.054   1.054   1.054   1.054   1.054   1.054   1.054   1.054   1.054   1.054   1.054   1.054   1.054   1.054   1.054   1.054   1.054
   168.33    1.054   1.054   1.054   1.054   1.054   1.054   1.054   1.054   1.054   1.054   1.054   1.054   1.054   1.054   1.054   1.054   1.054   1.054   1.054   1.054   1.054   1.054   1.054   1.054   1.054   1.054   1.054   1.054   1.054   1.054   1.054
   164.17    1.054   1.054   1.054   1.054   1.054   1.054   1.054   1.054   1.054   1.054   1.054   1.054   1.054   1.054   1.054   1.054   1.054   1.054   1.054   1.054   1.054   1.054   1.054   1.054   1.054   1.054   1.054   1.054   1.054   1.054   1.054
   160.00    1.054   1.054   1.054   1.054   1.054   1.054   1.054   1.054   1.054   1.054   1.054   1.054   1.054   1.054   1.054   1.054   1.054   1.054   1.054   1.054   1.054   1.054   1.054   1.054   1.054   1.054   1.054   1.054   1.054   1.054   1.054
   155.83    1.054   1.054   1.054   1.054   1.054   1.054   1.054   1.054   1.054   1.054   1.054   1.054   1.054   1.054   1.054   1.054   1.054   1.054   1.054   1.054   1.054   1.054   1.054   1.054   1.054   1.054   1.054   1.054   1.054   1.054   1.054
   151.67    1.054   1.054   1.054   1.054   1.054   1.054   1.054   1.054   1.054   1.054   1.054   1.054   1.054   1.054   1.054   1.054   1.054   1.054   1.054   1.054   1.054   1.054   1.054   1.054   1.054   1.054   1.054   1.054   1.054   1.054   1.054
   147.50    1.054   1.054   1.054   1.054   1.054   1.054   1.054   1.054   1.054   1.054   1.054   1.054   1.054   1.054   1.054   1.054   1.054   1.054   1.054   1.054   1.054   1.054   1.054   1.054   1.054   1.054   1.054   1.054   1.054   1.054   1.054
   143.33    1.054   1.054   1.054   1.054   1.054   1.054   1.054   1.054   1.054   1.054   1.054   1.054   1.054   1.054   1.054   1.054   1.054   1.054   1.054   1.054   1.054   1.054   1.054   1.054   1.054   1.054   1.054   1.054   1.054   1.054   1.054
   139.17    1.054   1.054   1.054   1.054   1.054   1.054   1.054   1.054   1.054   1.054   1.054   1.054   1.054   1.054   1.054   1.054   1.054   1.054   1.054   1.054   1.054   1.054   1.054   1.054   1.054   1.054   1.054   1.054   1.054   1.054   1.054
   135.00    1.054   1.054   1.054   1.054   1.054   1.054   1.054   1.054   1.054   1.054   1.054   1.054   1.054   1.054   1.054   1.054   1.054   1.054   1.054   1.054   1.054   1.054   1.054   1.054   1.054   1.054   1.054   1.054   1.054   1.054   1.054
   130.83    1.054   1.054   1.054   1.054   1.054   1.054   1.054   1.054   1.054   1.054   1.054   1.054   1.054   1.054   1.054   1.054   1.054   1.054   1.054   1.054   1.054   1.054   1.054   1.054   1.054   1.054   1.054   1.054   1.054   1.054   1.054
   126.67    1.054   1.054   1.054   1.054   1.054   1.054   1.054   1.054   1.054   1.054   1.054   1.054   1.054   1.054   1.054   1.054   1.054   1.054   1.054   1.054   1.054   1.054   1.054   1.054   1.054   1.054   1.054   1.054   1.054   1.054   1.054
   122.50    1.054   1.054   1.054   1.054   1.054   1.054   1.054   1.054   1.054   1.054   1.054   1.054   1.054   1.054   1.054   1.054   1.054   1.054   1.054   1.054   1.054   1.054   1.054   1.054   1.054   1.054   1.054   1.054   1.054   1.054   1.054
   118.33    1.054   1.054   1.054   1.054   1.054   1.054   1.054   1.054   1.054   1.054   1.054   1.054   1.054   1.054   1.054   1.054   1.054   1.054   1.054   1.054   1.054   1.054   1.054   1.054   1.054   1.054   1.054   1.054   1.054   1.054   1.054
   114.17    1.054   1.054   1.054   1.054   1.054   1.054   1.054   1.054   1.054   1.054   1.054   1.054   1.054   1.054   1.054   1.054   1.054   1.054   1.054   1.054   1.054   1.054   1.054   1.054   1.054   1.054   1.054   1.054   1.054   1.054   1.054
   110.00    1.054   1.054   1.054   1.054   1.054   1.054   1.054   1.054   1.054   1.054   1.054   1.054   1.054   1.054   1.054   1.054   1.054   1.054   1.054   1.054   1.054   1.054   1.054   1.054   1.054   1.054   1.054   1.054   1.054   1.054   1.054
   105.83    1.054   1.054   1.054   1.054   1.054   1.054   1.054   1.054   1.054   1.054   1.054   1.054   1.054   1.054   1.054   1.054   1.054   1.054   1.054   1.054   1.054   1.054   1.054   1.054   1.054   1.054   1.054   1.054   1.054   1.054   1.054
   101.67    1.054   1.054   1.054   1.054   1.054   1.054   1.054   1.054   1.054   1.054   1.054   1.054   1.054   1.054   1.054   1.054   1.054   1.054   1.054   1.054   1.054   1.054   1.054   1.054   1.054   1.054   1.054   1.054   1.054   1.054   1.054
    97.50    1.054   1.054   1.054   1.054   1.054   1.054   1.054   1.054   1.054   1.054   1.054   1.054   1.054   1.054   1.054   1.054   1.054   1.054   1.054   1.054   1.054   1.054   1.054   1.054   1.054   1.054   1.054   1.054   1.054   1.054   1.054
    93.33    1.054   1.054   1.054   1.054   1.054   1.054   1.054   1.054   1.054   1.054   1.054   1.054   1.054   1.054   1.054   1.054   1.054   1.054   1.054   1.054   1.054   1.054   1.054   1.054   1.054   1.054   1.054   1.054   1.054   1.054   1.054
    89.17    1.054   1.054   1.054   1.054   1.054   1.054   1.054   1.054   1.054   1.054   1.054   1.054   1.054   1.054   1.054   1.054   1.054   1.054   1.054   1.054   1.054   1.054   1.054   1.054   1.054   1.054   1.054   1.054   1.054   1.054   1.054
    85.00    1.054   1.054   1.054   1.054   1.054   1.054   1.054   1.054   1.054   1.054   1.054   1.054   1.054   1.054   1.054   1.054   1.054   1.054   1.054   1.054   1.054   1.054   1.054   1.054   1.054   1.054   1.054   1.054   1.054   1.054   1.054
    80.83    1.054   1.054   1.054   1.054   1.054   1.054   1.054   1.054   1.054   1.054   1.054   1.054   1.054   1.054   1.054   1.054   1.054   1.054   1.054   1.054   1.054   1.054   1.054   1.054   1.054   1.054   1.054   1.054   1.054   1.054   1.054
    76.67    1.054   1.054   1.054   1.054   1.054   1.054   1.054   1.054   1.054   1.054   1.054   1.054   1.054   1.054   1.054   1.054   1.054   1.054   1.054   1.054   1.054   1.054   1.054   1.054   1.054   1.054   1.054   1.054   1.054   1.054   1.054
    72.50    1.054   1.054   1.054   1.054   1.054   1.054   1.054   1.054   1.054   1.054   1.054   1.054   1.054   1.054   1.054   1.054   1.054   1.054   1.054   1.054   1.054   1.054   1.054   1.054   1.054   1.054   1.054   1.054   1.054   1.054   1.054
    68.33    1.054   1.054   1.054   1.054   1.054   1.054   1.054   1.054   1.054   1.054   1.054   1.054   1.054   1.054   1.054   1.054   1.054   1.054   1.054   1.054   1.054   1.054   1.054   1.054   1.054   1.054   1.054   1.054   1.054   1.054   1.054
    64.17    1.054   1.054   1.054   1.054   1.054   1.054   1.054   1.054   1.054   1.054   1.054   1.054   1.054   1.054   1.054   1.054   1.054   1.054   1.054   1.054   1.054   1.054   1.054   1.054   1.054   1.054   1.054   1.054   1.054   1.054   1.054
    60.00    1.054   1.054   1.054   1.054   1.054   1.054   1.054   1.054   1.054   1.054   1.054   1.054   1.054   1.054   1.054   1.054   1.054   1.054   1.054   1.054   1.054   1.054   1.054   1.054   1.054   1.054   1.054   1.054   1.054   1.054   1.054
    55.83    1.054   1.054   1.054   1.054   1.054   1.054   1.054   1.054   1.054   1.054   1.054   1.054   1.054   1.054   1.054   1.054   1.054   1.054   1.054   1.054   1.054   1.054   1.054   1.054   1.054   1.054   1.054   1.054   1.054   1.054   1.054
    51.67    1.054   1.054   1.054   1.054   1.054   1.054   1.054   1.054   1.054   1.054   1.054   1.054   1.054   1.054   1.054   1.054   1.054   1.054   1.054   1.054   1.054   1.054   1.054   1.054   1.054   1.054   1.054   1.054   1.054   1.054   1.054
    47.50    1.054   1.054   1.054   1.054   1.054   1.054   1.054   1.054   1.054   1.054   1.054   1.054   1.054   1.054   1.054   1.054   1.054   1.054   1.054   1.054   1.054   1.054   1.054   1.054   1.054   1.054   1.054   1.054   1.054   1.054   1.054

   Height   Standard deviation at grid points for the w component:
   172.50    0.863   0.863   0.863   0.863   0.863   0.863   0.863   0.863   0.863   0.863   0.863   0.863   0.863   0.863   0.863   0.863   0.863   0.863   0.863   0.863   0.863   0.863   0.863   0.863   0.863   0.863   0.863   0.863   0.863   0.863   0.863
   168.33    0.863   0.863   0.863   0.863   0.863   0.863   0.863   0.863   0.863   0.863   0.863   0.863   0.863   0.863   0.863   0.863   0.863   0.863   0.863   0.863   0.863   0.863   0.863   0.863   0.863   0.863   0.863   0.863   0.863   0.863   0.863
   164.17    0.863   0.863   0.863   0.863   0.863   0.863   0.863   0.863   0.863   0.863   0.863   0.863   0.863   0.863   0.863   0.863   0.863   0.863   0.863   0.863   0.863   0.863   0.863   0.863   0.863   0.863   0.863   0.863   0.863   0.863   0.863
   160.00    0.863   0.863   0.863   0.863   0.863   0.863   0.863   0.863   0.863   0.863   0.863   0.863   0.863   0.863   0.863   0.863   0.863   0.863   0.863   0.863   0.863   0.863   0.863   0.863   0.863   0.863   0.863   0.863   0.863   0.863   0.863
   155.83    0.863   0.863   0.863   0.863   0.863   0.863   0.863   0.863   0.863   0.863   0.863   0.863   0.863   0.863   0.863   0.863   0.863   0.863   0.863   0.863   0.863   0.863   0.863   0.863   0.863   0.863   0.863   0.863   0.863   0.863   0.863
   151.67    0.863   0.863   0.863   0.863   0.863   0.863   0.863   0.863   0.863   0.863   0.863   0.863   0.863   0.863   0.863   0.863   0.863   0.863   0.863   0.863   0.863   0.863   0.863   0.863   0.863   0.863   0.863   0.863   0.863   0.863   0.863
   147.50    0.863   0.863   0.863   0.863   0.863   0.863   0.863   0.863   0.863   0.863   0.863   0.863   0.863   0.863   0.863   0.863   0.863   0.863   0.863   0.863   0.863   0.863   0.863   0.863   0.863   0.863   0.863   0.863   0.863   0.863   0.863
   143.33    0.863   0.863   0.863   0.863   0.863   0.863   0.863   0.863   0.863   0.863   0.863   0.863   0.863   0.863   0.863   0.863   0.863   0.863   0.863   0.863   0.863   0.863   0.863   0.863   0.863   0.863   0.863   0.863   0.863   0.863   0.863
   139.17    0.863   0.863   0.863   0.863   0.863   0.863   0.863   0.863   0.863   0.863   0.863   0.863   0.863   0.863   0.863   0.863   0.863   0.863   0.863   0.863   0.863   0.863   0.863   0.863   0.863   0.863   0.863   0.863   0.863   0.863   0.863
   135.00    0.863   0.863   0.863   0.863   0.863   0.863   0.863   0.863   0.863   0.863   0.863   0.863   0.863   0.863   0.863   0.863   0.863   0.863   0.863   0.863   0.863   0.863   0.863   0.863   0.863   0.863   0.863   0.863   0.863   0.863   0.863
   130.83    0.863   0.863   0.863   0.863   0.863   0.863   0.863   0.863   0.863   0.863   0.863   0.863   0.863   0.863   0.863   0.863   0.863   0.863   0.863   0.863   0.863   0.863   0.863   0.863   0.863   0.863   0.863   0.863   0.863   0.863   0.863
   126.67    0.863   0.863   0.863   0.863   0.863   0.863   0.863   0.863   0.863   0.863   0.863   0.863   0.863   0.863   0.863   0.863   0.863   0.863   0.863   0.863   0.863   0.863   0.863   0.863   0.863   0.863   0.863   0.863   0.863   0.863   0.863
   122.50    0.863   0.863   0.863   0.863   0.863   0.863   0.863   0.863   0.863   0.863   0.863   0.863   0.863   0.863   0.863   0.863   0.863   0.863   0.863   0.863   0.863   0.863   0.863   0.863   0.863   0.863   0.863   0.863   0.863   0.863   0.863
   118.33    0.863   0.863   0.863   0.863   0.863   0.863   0.863   0.863   0.863   0.863   0.863   0.863   0.863   0.863   0.863   0.863   0.863   0.863   0.863   0.863   0.863   0.863   0.863   0.863   0.863   0.863   0.863   0.863   0.863   0.863   0.863
   114.17    0.863   0.863   0.863   0.863   0.863   0.863   0.863   0.863   0.863   0.863   0.863   0.863   0.863   0.863   0.863   0.863   0.863   0.863   0.863   0.863   0.863   0.863   0.863   0.863   0.863   0.863   0.863   0.863   0.863   0.863   0.863
   110.00    0.863   0.863   0.863   0.863   0.863   0.863   0.863   0.863   0.863   0.863   0.863   0.863   0.863   0.863   0.863   0.863   0.863   0.863   0.863   0.863   0.863   0.863   0.863   0.863   0.863   0.863   0.863   0.863   0.863   0.863   0.863
   105.83    0.863   0.863   0.863   0.863   0.863   0.863   0.863   0.863   0.863   0.863   0.863   0.863   0.863   0.863   0.863   0.863   0.863   0.863   0.863   0.863   0.863   0.863   0.863   0.863   0.863   0.863   0.863   0.863   0.863   0.863   0.863
   101.67    0.863   0.863   0.863   0.863   0.863   0.863   0.863   0.863   0.863   0.863   0.863   0.863   0.863   0.863   0.863   0.863   0.863   0.863   0.863   0.863   0.863   0.863   0.863   0.863   0.863   0.863   0.863   0.863   0.863   0.863   0.863
    97.50    0.863   0.863   0.863   0.863   0.863   0.863   0.863   0.863   0.863   0.863   0.863   0.863   0.863   0.863   0.863   0.863   0.863   0.863   0.863   0.863   0.863   0.863   0.863   0.863   0.863   0.863   0.863   0.863   0.863   0.863   0.863
    93.33    0.863   0.863   0.863   0.863   0.863   0.863   0.863   0.863   0.863   0.863   0.863   0.863   0.863   0.863   0.863   0.863   0.863   0.863   0.863   0.863   0.863   0.863   0.863   0.863   0.863   0.863   0.863   0.863   0.863   0.863   0.863
    89.17    0.863   0.863   0.863   0.863   0.863   0.863   0.863   0.863   0.863   0.863   0.863   0.863   0.863   0.863   0.863   0.863   0.863   0.863   0.863   0.863   0.863   0.863   0.863   0.863   0.863   0.863   0.863   0.863   0.863   0.863   0.863
    85.00    0.863   0.863   0.863   0.863   0.863   0.863   0.863   0.863   0.863   0.863   0.863   0.863   0.863   0.863   0.863   0.863   0.863   0.863   0.863   0.863   0.863   0.863   0.863   0.863   0.863   0.863   0.863   0.863   0.863   0.863   0.863
    80.83    0.863   0.863   0.863   0.863   0.863   0.863   0.863   0.863   0.863   0.863   0.863   0.863   0.863   0.863   0.863   0.863   0.863   0.863   0.863   0.863   0.863   0.863   0.863   0.863   0.863   0.863   0.863   0.863   0.863   0.863   0.863
    76.67    0.863   0.863   0.863   0.863   0.863   0.863   0.863   0.863   0.863   0.863   0.863   0.863   0.863   0.863   0.863   0.863   0.863   0.863   0.863   0.863   0.863   0.863   0.863   0.863   0.863   0.863   0.863   0.863   0.863   0.863   0.863
    72.50    0.863   0.863   0.863   0.863   0.863   0.863   0.863   0.863   0.863   0.863   0.863   0.863   0.863   0.863   0.863   0.863   0.863   0.863   0.863   0.863   0.863   0.863   0.863   0.863   0.863   0.863   0.863   0.863   0.863   0.863   0.863
    68.33    0.863   0.863   0.863   0.863   0.863   0.863   0.863   0.863   0.863   0.863   0.863   0.863   0.863   0.863   0.863   0.863   0.863   0.863   0.863   0.863   0.863   0.863   0.863   0.863   0.863   0.863   0.863   0.863   0.863   0.863   0.863
    64.17    0.863   0.863   0.863   0.863   0.863   0.863   0.863   0.863   0.863   0.863   0.863   0.863   0.863   0.863   0.863   0.863   0.863   0.863   0.863   0.863   0.863   0.863   0.863   0.863   0.863   0.863   0.863   0.863   0.863   0.863   0.863
    60.00    0.863   0.863   0.863   0.863   0.863   0.863   0.863   0.863   0.863   0.863   0.863   0.863   0.863   0.863   0.863   0.863   0.863   0.863   0.863   0.863   0.863   0.863   0.863   0.863   0.863   0.863   0.863   0.863   0.863   0.863   0.863
    55.83    0.863   0.863   0.863   0.863   0.863   0.863   0.863   0.863   0.863   0.863   0.863   0.863   0.863   0.863   0.863   0.863   0.863   0.863   0.863   0.863   0.863   0.863   0.863   0.863   0.863   0.863   0.863   0.863   0.863   0.863   0.863
    51.67    0.863   0.863   0.863   0.863   0.863   0.863   0.863   0.863   0.863   0.863   0.863   0.863   0.863   0.863   0.863   0.863   0.863   0.863   0.863   0.863   0.863   0.863   0.863   0.863   0.863   0.863   0.863   0.863   0.863   0.863   0.863
    47.50    0.863   0.863   0.863   0.863   0.863   0.863   0.863   0.863   0.863   0.863   0.863   0.863   0.863   0.863   0.863   0.863   0.863   0.863   0.863   0.863   0.863   0.863   0.863   0.863   0.863   0.863   0.863   0.863   0.863   0.863   0.863

   Mean standard deviation across all grid points:
      u component:    0.955 m/s
      v component:    1.054 m/s
      w component:    0.863 m/s


U-component (X) statistics from the interpolated hub point:

   Mean =  12.4914 m/s
   TI   =   6.2368 %


Processing complete.  7.2186 CPU seconds used.
