
This summary file was generated by HydroDyn  on 23-Dec-2021 at 12:41:56.

WAMIT Model - Body    1
------------------
  Displaced volume (m^3)                 :     1.391700E+04
  X-offset of the center of buoyancy (m) :     0.000000E+00
  Y-offset of the center of buoyancy (m) :     0.000000E+00


  Buoyancy loads from members modelled with WAMIT, summed about ( 0.0, 0.0, 0.0 )
                                BuoyFxi               BuoyFyi               BuoyFzi               BuoyMxi               BuoyMyi               BuoyMzi 
                                  (N)                   (N)                   (N)                  (N-m)                 (N-m)                 (N-m)  
  External:                 0.000000E+00          0.000000E+00          1.398911E+08          0.000000E+00         -0.000000E+00          0.000000E+00



Strip-Theory Volume Calculations(m^3)
-------------------------------------
  Structure Volume     :    0.00000E+00
  Submerged Volume     :    1.73828-308
  Marine Growth Volume :    0.00000E+00
  Ballasted Volume     :    9.38912E+03
              NOTE: Structure, Submerged and Marine Growth volumes are based on members not modelled with WAMIT
                      Ballasted volume is computed from all members which are marked as filled in the HydroDyn input file, regardless of PropPot flag



Total Buoyancy loads summed about ( 0.0, 0.0, 0.0 )
---------------------------------------------------
                                BuoyFxi               BuoyFyi               BuoyFzi               BuoyMxi               BuoyMyi               BuoyMzi 
                                  (N)                   (N)                   (N)                  (N-m)                 (N-m)                 (N-m)  
 External:                  0.000000E+00          0.000000E+00          0.000000E+00          0.000000E+00          0.000000E+00          0.000000E+00
 Internal:                  1.095575E-07          0.000000E+00         -9.437773E+07          0.000000E+00          3.145924E+02          0.000000E+00
 Total   :                  1.095575E-07          0.000000E+00         -9.437773E+07          0.000000E+00          3.145924E+02          0.000000E+00
              NOTE: External buoyancy is based on members not modelled with WAMIT
                      Internal buoyancy is computed from all members which are marked as filled in the HydroDyn input file, regardless of PropPot flag
                    Total buoyancy does not include WAMIT-modelled buoyancy contribution



Weight loads about ( 0.0, 0.0, 0.0 )
------------------------------------
                                 MGFxi                 MGFyi                 MGFzi                 MGMxi                 MGMyi                 MGMzi  
                                  (N)                   (N)                   (N)                  (N-m)                 (N-m)                 (N-m)  
 Marine Growth:             0.000000E+00          0.000000E+00          0.000000E+00          0.000000E+00          0.000000E+00          0.000000E+00



Nodes (first [  44 ] are joints, remainder are internal nodes)


   i      MbrIndx      Nxi         Nyi         Nzi           R          t          tMG        MGDens     PropPot    FilledFlag  FilledMass      Cd          Ca          Cp         AxCd        AxCa        AxCp        JAxCd       JAxCa       JAxCp  
  (-)       (-)        (m)         (m)         (m)          (m)        (m)         (m)       (kg/m^3)      (-)         (-)        (kg)          (-)         (-)         (-)         (-)         (-)         (-)         (-)         (-)         (-)   
     1      -           0.0000      0.0000    -20.0000      -           -        0.000E+00   0.000E+00      -           -           -           -           -           -           -           -           -        0.000E+00   0.000E+00   1.000E+00
     2      -           0.0000      0.0000     10.0000      -           -        0.000E+00   0.000E+00      -           -           -           -           -           -           -           -           -        0.000E+00   0.000E+00   1.000E+00
     3      -          14.4338     25.0000    -14.0000      -           -        0.000E+00   0.000E+00      -           -           -           -           -           -           -           -           -        0.000E+00   0.000E+00   1.000E+00
     4      -          14.4338     25.0000     12.0000      -           -        0.000E+00   0.000E+00      -           -           -           -           -           -           -           -           -        0.000E+00   0.000E+00   1.000E+00
     5      -         -28.8675      0.0000    -14.0000      -           -        0.000E+00   0.000E+00      -           -           -           -           -           -           -           -           -        0.000E+00   0.000E+00   1.000E+00
     6      -         -28.8675      0.0000     12.0000      -           -        0.000E+00   0.000E+00      -           -           -           -           -           -           -           -           -        0.000E+00   0.000E+00   1.000E+00
     7      -          14.4338    -25.0000    -14.0000      -           -        0.000E+00   0.000E+00      -           -           -           -           -           -           -           -           -        0.000E+00   0.000E+00   1.000E+00
     8      -          14.4338    -25.0000     12.0000      -           -        0.000E+00   0.000E+00      -           -           -           -           -           -           -           -           -        0.000E+00   0.000E+00   1.000E+00
     9      -          14.4337     25.0000    -20.0000      -           -        0.000E+00   0.000E+00      -           -           -           -           -           -           -           -           -        9.600E+00   0.000E+00   1.000E+00
    10      -         -28.8675      0.0000    -20.0000      -           -        0.000E+00   0.000E+00      -           -           -           -           -           -           -           -           -        9.600E+00   0.000E+00   1.000E+00
    11      -          14.4337    -25.0000    -20.0000      -           -        0.000E+00   0.000E+00      -           -           -           -           -           -           -           -           -        9.600E+00   0.000E+00   1.000E+00
    12      -           9.2376     22.0000     10.0000      -           -        0.000E+00   0.000E+00      -           -           -           -           -           -           -           -           -        0.000E+00   0.000E+00   1.000E+00
    13      -         -23.6713      3.0000     10.0000      -           -        0.000E+00   0.000E+00      -           -           -           -           -           -           -           -           -        0.000E+00   0.000E+00   1.000E+00
    14      -         -23.6713     -3.0000     10.0000      -           -        0.000E+00   0.000E+00      -           -           -           -           -           -           -           -           -        0.000E+00   0.000E+00   1.000E+00
    15      -           9.2376    -22.0000     10.0000      -           -        0.000E+00   0.000E+00      -           -           -           -           -           -           -           -           -        0.000E+00   0.000E+00   1.000E+00
    16      -          14.4337    -19.0000     10.0000      -           -        0.000E+00   0.000E+00      -           -           -           -           -           -           -           -           -        0.000E+00   0.000E+00   1.000E+00
    17      -          14.4337     19.0000     10.0000      -           -        0.000E+00   0.000E+00      -           -           -           -           -           -           -           -           -        0.000E+00   0.000E+00   1.000E+00
    18      -           4.0415     19.0000    -17.0000      -           -        0.000E+00   0.000E+00      -           -           -           -           -           -           -           -           -        0.000E+00   0.000E+00   1.000E+00
    19      -         -18.4752      6.0000    -17.0000      -           -        0.000E+00   0.000E+00      -           -           -           -           -           -           -           -           -        0.000E+00   0.000E+00   1.000E+00
    20      -         -18.4752     -6.0000    -17.0000      -           -        0.000E+00   0.000E+00      -           -           -           -           -           -           -           -           -        0.000E+00   0.000E+00   1.000E+00
    21      -           4.0415    -19.0000    -17.0000      -           -        0.000E+00   0.000E+00      -           -           -           -           -           -           -           -           -        0.000E+00   0.000E+00   1.000E+00
    22      -          14.4337    -13.0000    -17.0000      -           -        0.000E+00   0.000E+00      -           -           -           -           -           -           -           -           -        0.000E+00   0.000E+00   1.000E+00
    23      -          14.4337     13.0000    -17.0000      -           -        0.000E+00   0.000E+00      -           -           -           -           -           -           -           -           -        0.000E+00   0.000E+00   1.000E+00
    24      -           1.6250      2.8150     10.0000      -           -        0.000E+00   0.000E+00      -           -           -           -           -           -           -           -           -        0.000E+00   0.000E+00   1.000E+00
    25      -          11.4338     19.8039     10.0000      -           -        0.000E+00   0.000E+00      -           -           -           -           -           -           -           -           -        0.000E+00   0.000E+00   1.000E+00
    26      -          -3.2500      0.0000     10.0000      -           -        0.000E+00   0.000E+00      -           -           -           -           -           -           -           -           -        0.000E+00   0.000E+00   1.000E+00
    27      -         -22.8700      0.0000     10.0000      -           -        0.000E+00   0.000E+00      -           -           -           -           -           -           -           -           -        0.000E+00   0.000E+00   1.000E+00
    28      -           1.6250     -2.8150     10.0000      -           -        0.000E+00   0.000E+00      -           -           -           -           -           -           -           -           -        0.000E+00   0.000E+00   1.000E+00
    29      -          11.4338    -19.8039     10.0000      -           -        0.000E+00   0.000E+00      -           -           -           -           -           -           -           -           -        0.000E+00   0.000E+00   1.000E+00
    30      -           1.6250      2.8150    -17.0000      -           -        0.000E+00   0.000E+00      -           -           -           -           -           -           -           -           -        0.000E+00   0.000E+00   1.000E+00
    31      -           8.4338     14.6077    -17.0000      -           -        0.000E+00   0.000E+00      -           -           -           -           -           -           -           -           -        0.000E+00   0.000E+00   1.000E+00
    32      -          -3.2500      0.0000    -17.0000      -           -        0.000E+00   0.000E+00      -           -           -           -           -           -           -           -           -        0.000E+00   0.000E+00   1.000E+00
    33      -         -16.8700      0.0000    -17.0000      -           -        0.000E+00   0.000E+00      -           -           -           -           -           -           -           -           -        0.000E+00   0.000E+00   1.000E+00
    34      -           1.6250     -2.8150    -17.0000      -           -        0.000E+00   0.000E+00      -           -           -           -           -           -           -           -           -        0.000E+00   0.000E+00   1.000E+00
    35      -           8.4338    -14.6077    -17.0000      -           -        0.000E+00   0.000E+00      -           -           -           -           -           -           -           -           -        0.000E+00   0.000E+00   1.000E+00
    36      -           1.6250      2.8150    -16.2000      -           -        0.000E+00   0.000E+00      -           -           -           -           -           -           -           -           -        0.000E+00   0.000E+00   1.000E+00
    37      -          11.4338     19.8039      9.1300      -           -        0.000E+00   0.000E+00      -           -           -           -           -           -           -           -           -        0.000E+00   0.000E+00   1.000E+00
    38      -          -3.2500      0.0000    -16.2000      -           -        0.000E+00   0.000E+00      -           -           -           -           -           -           -           -           -        0.000E+00   0.000E+00   1.000E+00
    39      -         -22.8700      0.0000      9.1300      -           -        0.000E+00   0.000E+00      -           -           -           -           -           -           -           -           -        0.000E+00   0.000E+00   1.000E+00
    40      -           1.6250     -2.8150    -16.2000      -           -        0.000E+00   0.000E+00      -           -           -           -           -           -           -           -           -        0.000E+00   0.000E+00   1.000E+00
    41      -          11.4338    -19.8039      9.1300      -           -        0.000E+00   0.000E+00      -           -           -           -           -           -           -           -           -        0.000E+00   0.000E+00   1.000E+00
    42      -          14.4338     25.0000    -19.9400      -           -        0.000E+00   0.000E+00      -           -           -           -           -           -           -           -           -        0.000E+00   0.000E+00   1.000E+00
    43      -         -28.8675      0.0000    -19.9400      -           -        0.000E+00   0.000E+00      -           -           -           -           -           -           -           -           -        0.000E+00   0.000E+00   1.000E+00
    44      -          14.4338    -25.0000    -19.9400      -           -        0.000E+00   0.000E+00      -           -           -           -           -           -           -           -           -        0.000E+00   0.000E+00   1.000E+00
    45           1      0.0000      0.0000    -19.0000   3.250E+00   3.000E-02   0.000E+00   0.000E+00           T           F   0.000E+00   5.600E-01   0.000E+00   0.000E+00   0.000E+00   0.000E+00   0.000E+00         -           -           -  
    46           1      0.0000      0.0000    -18.0000   3.250E+00   3.000E-02   0.000E+00   0.000E+00           T           F   0.000E+00   5.600E-01   0.000E+00   0.000E+00   0.000E+00   0.000E+00   0.000E+00         -           -           -  
    47           1      0.0000      0.0000    -17.0000   3.250E+00   3.000E-02   0.000E+00   0.000E+00           T           F   0.000E+00   5.600E-01   0.000E+00   0.000E+00   0.000E+00   0.000E+00   0.000E+00         -           -           -  
    48           1      0.0000      0.0000    -16.0000   3.250E+00   3.000E-02   0.000E+00   0.000E+00           T           F   0.000E+00   5.600E-01   0.000E+00   0.000E+00   0.000E+00   0.000E+00   0.000E+00         -           -           -  
    49           1      0.0000      0.0000    -15.0000   3.250E+00   3.000E-02   0.000E+00   0.000E+00           T           F   0.000E+00   5.600E-01   0.000E+00   0.000E+00   0.000E+00   0.000E+00   0.000E+00         -           -           -  
    50           1      0.0000      0.0000    -14.0000   3.250E+00   3.000E-02   0.000E+00   0.000E+00           T           F   0.000E+00   5.600E-01   0.000E+00   0.000E+00   0.000E+00   0.000E+00   0.000E+00         -           -           -  
    51           1      0.0000      0.0000    -13.0000   3.250E+00   3.000E-02   0.000E+00   0.000E+00           T           F   0.000E+00   5.600E-01   0.000E+00   0.000E+00   0.000E+00   0.000E+00   0.000E+00         -           -           -  
    52           1      0.0000      0.0000    -12.0000   3.250E+00   3.000E-02   0.000E+00   0.000E+00           T           F   0.000E+00   5.600E-01   0.000E+00   0.000E+00   0.000E+00   0.000E+00   0.000E+00         -           -           -  
    53           1      0.0000      0.0000    -11.0000   3.250E+00   3.000E-02   0.000E+00   0.000E+00           T           F   0.000E+00   5.600E-01   0.000E+00   0.000E+00   0.000E+00   0.000E+00   0.000E+00         -           -           -  
    54           1      0.0000      0.0000    -10.0000   3.250E+00   3.000E-02   0.000E+00   0.000E+00           T           F   0.000E+00   5.600E-01   0.000E+00   0.000E+00   0.000E+00   0.000E+00   0.000E+00         -           -           -  
    55           1      0.0000      0.0000     -9.0000   3.250E+00   3.000E-02   0.000E+00   0.000E+00           T           F   0.000E+00   5.600E-01   0.000E+00   0.000E+00   0.000E+00   0.000E+00   0.000E+00         -           -           -  
    56           1      0.0000      0.0000     -8.0000   3.250E+00   3.000E-02   0.000E+00   0.000E+00           T           F   0.000E+00   5.600E-01   0.000E+00   0.000E+00   0.000E+00   0.000E+00   0.000E+00         -           -           -  
    57           1      0.0000      0.0000     -7.0000   3.250E+00   3.000E-02   0.000E+00   0.000E+00           T           F   0.000E+00   5.600E-01   0.000E+00   0.000E+00   0.000E+00   0.000E+00   0.000E+00         -           -           -  
    58           1      0.0000      0.0000     -6.0000   3.250E+00   3.000E-02   0.000E+00   0.000E+00           T           F   0.000E+00   5.600E-01   0.000E+00   0.000E+00   0.000E+00   0.000E+00   0.000E+00         -           -           -  
    59           1      0.0000      0.0000     -5.0000   3.250E+00   3.000E-02   0.000E+00   0.000E+00           T           F   0.000E+00   5.600E-01   0.000E+00   0.000E+00   0.000E+00   0.000E+00   0.000E+00         -           -           -  
    60           1      0.0000      0.0000     -4.0000   3.250E+00   3.000E-02   0.000E+00   0.000E+00           T           F   0.000E+00   5.600E-01   0.000E+00   0.000E+00   0.000E+00   0.000E+00   0.000E+00         -           -           -  
    61           1      0.0000      0.0000     -3.0000   3.250E+00   3.000E-02   0.000E+00   0.000E+00           T           F   0.000E+00   5.600E-01   0.000E+00   0.000E+00   0.000E+00   0.000E+00   0.000E+00         -           -           -  
    62           1      0.0000      0.0000     -2.0000   3.250E+00   3.000E-02   0.000E+00   0.000E+00           T           F   0.000E+00   5.600E-01   0.000E+00   0.000E+00   0.000E+00   0.000E+00   0.000E+00         -           -           -  
    63           1      0.0000      0.0000     -1.0000   3.250E+00   3.000E-02   0.000E+00   0.000E+00           T           F   0.000E+00   5.600E-01   0.000E+00   0.000E+00   0.000E+00   0.000E+00   0.000E+00         -           -           -  
    64           1      0.0000      0.0000     -0.0000   3.250E+00   3.000E-02   0.000E+00   0.000E+00           T           F   0.000E+00   5.600E-01   0.000E+00   0.000E+00   0.000E+00   0.000E+00   0.000E+00         -           -           -  
    65           1      0.0000      0.0000      1.0000   3.250E+00   3.000E-02   0.000E+00   0.000E+00           T           F   0.000E+00   5.600E-01   0.000E+00   0.000E+00   0.000E+00   0.000E+00   0.000E+00         -           -           -  
    66           1      0.0000      0.0000      2.0000   3.250E+00   3.000E-02   0.000E+00   0.000E+00           T           F   0.000E+00   5.600E-01   0.000E+00   0.000E+00   0.000E+00   0.000E+00   0.000E+00         -           -           -  
    67           1      0.0000      0.0000      3.0000   3.250E+00   3.000E-02   0.000E+00   0.000E+00           T           F   0.000E+00   5.600E-01   0.000E+00   0.000E+00   0.000E+00   0.000E+00   0.000E+00         -           -           -  
    68           1      0.0000      0.0000      4.0000   3.250E+00   3.000E-02   0.000E+00   0.000E+00           T           F   0.000E+00   5.600E-01   0.000E+00   0.000E+00   0.000E+00   0.000E+00   0.000E+00         -           -           -  
    69           1      0.0000      0.0000      5.0000   3.250E+00   3.000E-02   0.000E+00   0.000E+00           T           F   0.000E+00   5.600E-01   0.000E+00   0.000E+00   0.000E+00   0.000E+00   0.000E+00         -           -           -  
    70           1      0.0000      0.0000      6.0000   3.250E+00   3.000E-02   0.000E+00   0.000E+00           T           F   0.000E+00   5.600E-01   0.000E+00   0.000E+00   0.000E+00   0.000E+00   0.000E+00         -           -           -  
    71           1      0.0000      0.0000      7.0000   3.250E+00   3.000E-02   0.000E+00   0.000E+00           T           F   0.000E+00   5.600E-01   0.000E+00   0.000E+00   0.000E+00   0.000E+00   0.000E+00         -           -           -  
    72           1      0.0000      0.0000      8.0000   3.250E+00   3.000E-02   0.000E+00   0.000E+00           T           F   0.000E+00   5.600E-01   0.000E+00   0.000E+00   0.000E+00   0.000E+00   0.000E+00         -           -           -  
    73           1      0.0000      0.0000      9.0000   3.250E+00   3.000E-02   0.000E+00   0.000E+00           T           F   0.000E+00   5.600E-01   0.000E+00   0.000E+00   0.000E+00   0.000E+00   0.000E+00         -           -           -  
    74           2     14.4338     25.0000    -13.0000   6.000E+00   6.000E-02   0.000E+00   0.000E+00           T           T   1.136E+05   6.100E-01   0.000E+00   0.000E+00   0.000E+00   0.000E+00   0.000E+00         -           -           -  
    75           2     14.4338     25.0000    -12.0000   6.000E+00   6.000E-02   0.000E+00   0.000E+00           T           T   1.136E+05   6.100E-01   0.000E+00   0.000E+00   0.000E+00   0.000E+00   0.000E+00         -           -           -  
    76           2     14.4338     25.0000    -11.0000   6.000E+00   6.000E-02   0.000E+00   0.000E+00           T           T   1.136E+05   6.100E-01   0.000E+00   0.000E+00   0.000E+00   0.000E+00   0.000E+00         -           -           -  
    77           2     14.4338     25.0000    -10.0000   6.000E+00   6.000E-02   0.000E+00   0.000E+00           T           T   1.136E+05   6.100E-01   0.000E+00   0.000E+00   0.000E+00   0.000E+00   0.000E+00         -           -           -  
    78           2     14.4338     25.0000     -9.0000   6.000E+00   6.000E-02   0.000E+00   0.000E+00           T           T   1.136E+05   6.100E-01   0.000E+00   0.000E+00   0.000E+00   0.000E+00   0.000E+00         -           -           -  
    79           2     14.4338     25.0000     -8.0000   6.000E+00   6.000E-02   0.000E+00   0.000E+00           T           T   1.136E+05   6.100E-01   0.000E+00   0.000E+00   0.000E+00   0.000E+00   0.000E+00         -           -           -  
    80           2     14.4338     25.0000     -7.0000   6.000E+00   6.000E-02   0.000E+00   0.000E+00           T           T   9.430E+04   6.100E-01   0.000E+00   0.000E+00   0.000E+00   0.000E+00   0.000E+00         -           -           -  
    81           2     14.4338     25.0000     -6.0000   6.000E+00   6.000E-02   0.000E+00   0.000E+00           T           F   0.000E+00   6.100E-01   0.000E+00   0.000E+00   0.000E+00   0.000E+00   0.000E+00         -           -           -  
    82           2     14.4338     25.0000     -5.0000   6.000E+00   6.000E-02   0.000E+00   0.000E+00           T           F   0.000E+00   6.100E-01   0.000E+00   0.000E+00   0.000E+00   0.000E+00   0.000E+00         -           -           -  
    83           2     14.4338     25.0000     -4.0000   6.000E+00   6.000E-02   0.000E+00   0.000E+00           T           F   0.000E+00   6.100E-01   0.000E+00   0.000E+00   0.000E+00   0.000E+00   0.000E+00         -           -           -  
    84           2     14.4338     25.0000     -3.0000   6.000E+00   6.000E-02   0.000E+00   0.000E+00           T           F   0.000E+00   6.100E-01   0.000E+00   0.000E+00   0.000E+00   0.000E+00   0.000E+00         -           -           -  
    85           2     14.4338     25.0000     -2.0000   6.000E+00   6.000E-02   0.000E+00   0.000E+00           T           F   0.000E+00   6.100E-01   0.000E+00   0.000E+00   0.000E+00   0.000E+00   0.000E+00         -           -           -  
    86           2     14.4338     25.0000     -1.0000   6.000E+00   6.000E-02   0.000E+00   0.000E+00           T           F   0.000E+00   6.100E-01   0.000E+00   0.000E+00   0.000E+00   0.000E+00   0.000E+00         -           -           -  
    87           2     14.4338     25.0000      0.0000   6.000E+00   6.000E-02   0.000E+00   0.000E+00           T           F   0.000E+00   6.100E-01   0.000E+00   0.000E+00   0.000E+00   0.000E+00   0.000E+00         -           -           -  
    88           2     14.4338     25.0000      1.0000   6.000E+00   6.000E-02   0.000E+00   0.000E+00           T           F   0.000E+00   6.100E-01   0.000E+00   0.000E+00   0.000E+00   0.000E+00   0.000E+00         -           -           -  
    89           2     14.4338     25.0000      2.0000   6.000E+00   6.000E-02   0.000E+00   0.000E+00           T           F   0.000E+00   6.100E-01   0.000E+00   0.000E+00   0.000E+00   0.000E+00   0.000E+00         -           -           -  
    90           2     14.4338     25.0000      3.0000   6.000E+00   6.000E-02   0.000E+00   0.000E+00           T           F   0.000E+00   6.100E-01   0.000E+00   0.000E+00   0.000E+00   0.000E+00   0.000E+00         -           -           -  
    91           2     14.4338     25.0000      4.0000   6.000E+00   6.000E-02   0.000E+00   0.000E+00           T           F   0.000E+00   6.100E-01   0.000E+00   0.000E+00   0.000E+00   0.000E+00   0.000E+00         -           -           -  
    92           2     14.4338     25.0000      5.0000   6.000E+00   6.000E-02   0.000E+00   0.000E+00           T           F   0.000E+00   6.100E-01   0.000E+00   0.000E+00   0.000E+00   0.000E+00   0.000E+00         -           -           -  
    93           2     14.4338     25.0000      6.0000   6.000E+00   6.000E-02   0.000E+00   0.000E+00           T           F   0.000E+00   6.100E-01   0.000E+00   0.000E+00   0.000E+00   0.000E+00   0.000E+00         -           -           -  
    94           2     14.4338     25.0000      7.0000   6.000E+00   6.000E-02   0.000E+00   0.000E+00           T           F   0.000E+00   6.100E-01   0.000E+00   0.000E+00   0.000E+00   0.000E+00   0.000E+00         -           -           -  
    95           2     14.4338     25.0000      8.0000   6.000E+00   6.000E-02   0.000E+00   0.000E+00           T           F   0.000E+00   6.100E-01   0.000E+00   0.000E+00   0.000E+00   0.000E+00   0.000E+00         -           -           -  
    96           2     14.4338     25.0000      9.0000   6.000E+00   6.000E-02   0.000E+00   0.000E+00           T           F   0.000E+00   6.100E-01   0.000E+00   0.000E+00   0.000E+00   0.000E+00   0.000E+00         -           -           -  
    97           2     14.4338     25.0000     10.0000   6.000E+00   6.000E-02   0.000E+00   0.000E+00           T           F   0.000E+00   6.100E-01   0.000E+00   0.000E+00   0.000E+00   0.000E+00   0.000E+00         -           -           -  
    98           2     14.4338     25.0000     11.0000   6.000E+00   6.000E-02   0.000E+00   0.000E+00           T           F   0.000E+00   6.100E-01   0.000E+00   0.000E+00   0.000E+00   0.000E+00   0.000E+00         -           -           -  
    99           3    -28.8675      0.0000    -13.0000   6.000E+00   6.000E-02   0.000E+00   0.000E+00           T           T   1.136E+05   6.100E-01   0.000E+00   0.000E+00   0.000E+00   0.000E+00   0.000E+00         -           -           -  
   100           3    -28.8675      0.0000    -12.0000   6.000E+00   6.000E-02   0.000E+00   0.000E+00           T           T   1.136E+05   6.100E-01   0.000E+00   0.000E+00   0.000E+00   0.000E+00   0.000E+00         -           -           -  
   101           3    -28.8675      0.0000    -11.0000   6.000E+00   6.000E-02   0.000E+00   0.000E+00           T           T   1.136E+05   6.100E-01   0.000E+00   0.000E+00   0.000E+00   0.000E+00   0.000E+00         -           -           -  
   102           3    -28.8675      0.0000    -10.0000   6.000E+00   6.000E-02   0.000E+00   0.000E+00           T           T   1.136E+05   6.100E-01   0.000E+00   0.000E+00   0.000E+00   0.000E+00   0.000E+00         -           -           -  
   103           3    -28.8675      0.0000     -9.0000   6.000E+00   6.000E-02   0.000E+00   0.000E+00           T           T   1.136E+05   6.100E-01   0.000E+00   0.000E+00   0.000E+00   0.000E+00   0.000E+00         -           -           -  
   104           3    -28.8675      0.0000     -8.0000   6.000E+00   6.000E-02   0.000E+00   0.000E+00           T           T   1.136E+05   6.100E-01   0.000E+00   0.000E+00   0.000E+00   0.000E+00   0.000E+00         -           -           -  
   105           3    -28.8675      0.0000     -7.0000   6.000E+00   6.000E-02   0.000E+00   0.000E+00           T           T   9.430E+04   6.100E-01   0.000E+00   0.000E+00   0.000E+00   0.000E+00   0.000E+00         -           -           -  
   106           3    -28.8675      0.0000     -6.0000   6.000E+00   6.000E-02   0.000E+00   0.000E+00           T           F   0.000E+00   6.100E-01   0.000E+00   0.000E+00   0.000E+00   0.000E+00   0.000E+00         -           -           -  
   107           3    -28.8675      0.0000     -5.0000   6.000E+00   6.000E-02   0.000E+00   0.000E+00           T           F   0.000E+00   6.100E-01   0.000E+00   0.000E+00   0.000E+00   0.000E+00   0.000E+00         -           -           -  
   108           3    -28.8675      0.0000     -4.0000   6.000E+00   6.000E-02   0.000E+00   0.000E+00           T           F   0.000E+00   6.100E-01   0.000E+00   0.000E+00   0.000E+00   0.000E+00   0.000E+00         -           -           -  
   109           3    -28.8675      0.0000     -3.0000   6.000E+00   6.000E-02   0.000E+00   0.000E+00           T           F   0.000E+00   6.100E-01   0.000E+00   0.000E+00   0.000E+00   0.000E+00   0.000E+00         -           -           -  
   110           3    -28.8675      0.0000     -2.0000   6.000E+00   6.000E-02   0.000E+00   0.000E+00           T           F   0.000E+00   6.100E-01   0.000E+00   0.000E+00   0.000E+00   0.000E+00   0.000E+00         -           -           -  
   111           3    -28.8675      0.0000     -1.0000   6.000E+00   6.000E-02   0.000E+00   0.000E+00           T           F   0.000E+00   6.100E-01   0.000E+00   0.000E+00   0.000E+00   0.000E+00   0.000E+00         -           -           -  
   112           3    -28.8675      0.0000      0.0000   6.000E+00   6.000E-02   0.000E+00   0.000E+00           T           F   0.000E+00   6.100E-01   0.000E+00   0.000E+00   0.000E+00   0.000E+00   0.000E+00         -           -           -  
   113           3    -28.8675      0.0000      1.0000   6.000E+00   6.000E-02   0.000E+00   0.000E+00           T           F   0.000E+00   6.100E-01   0.000E+00   0.000E+00   0.000E+00   0.000E+00   0.000E+00         -           -           -  
   114           3    -28.8675      0.0000      2.0000   6.000E+00   6.000E-02   0.000E+00   0.000E+00           T           F   0.000E+00   6.100E-01   0.000E+00   0.000E+00   0.000E+00   0.000E+00   0.000E+00         -           -           -  
   115           3    -28.8675      0.0000      3.0000   6.000E+00   6.000E-02   0.000E+00   0.000E+00           T           F   0.000E+00   6.100E-01   0.000E+00   0.000E+00   0.000E+00   0.000E+00   0.000E+00         -           -           -  
   116           3    -28.8675      0.0000      4.0000   6.000E+00   6.000E-02   0.000E+00   0.000E+00           T           F   0.000E+00   6.100E-01   0.000E+00   0.000E+00   0.000E+00   0.000E+00   0.000E+00         -           -           -  
   117           3    -28.8675      0.0000      5.0000   6.000E+00   6.000E-02   0.000E+00   0.000E+00           T           F   0.000E+00   6.100E-01   0.000E+00   0.000E+00   0.000E+00   0.000E+00   0.000E+00         -           -           -  
   118           3    -28.8675      0.0000      6.0000   6.000E+00   6.000E-02   0.000E+00   0.000E+00           T           F   0.000E+00   6.100E-01   0.000E+00   0.000E+00   0.000E+00   0.000E+00   0.000E+00         -           -           -  
   119           3    -28.8675      0.0000      7.0000   6.000E+00   6.000E-02   0.000E+00   0.000E+00           T           F   0.000E+00   6.100E-01   0.000E+00   0.000E+00   0.000E+00   0.000E+00   0.000E+00         -           -           -  
   120           3    -28.8675      0.0000      8.0000   6.000E+00   6.000E-02   0.000E+00   0.000E+00           T           F   0.000E+00   6.100E-01   0.000E+00   0.000E+00   0.000E+00   0.000E+00   0.000E+00         -           -           -  
   121           3    -28.8675      0.0000      9.0000   6.000E+00   6.000E-02   0.000E+00   0.000E+00           T           F   0.000E+00   6.100E-01   0.000E+00   0.000E+00   0.000E+00   0.000E+00   0.000E+00         -           -           -  
   122           3    -28.8675      0.0000     10.0000   6.000E+00   6.000E-02   0.000E+00   0.000E+00           T           F   0.000E+00   6.100E-01   0.000E+00   0.000E+00   0.000E+00   0.000E+00   0.000E+00         -           -           -  
   123           3    -28.8675      0.0000     11.0000   6.000E+00   6.000E-02   0.000E+00   0.000E+00           T           F   0.000E+00   6.100E-01   0.000E+00   0.000E+00   0.000E+00   0.000E+00   0.000E+00         -           -           -  
   124           4     14.4338    -25.0000    -13.0000   6.000E+00   6.000E-02   0.000E+00   0.000E+00           T           T   1.136E+05   6.100E-01   0.000E+00   0.000E+00   0.000E+00   0.000E+00   0.000E+00         -           -           -  
   125           4     14.4338    -25.0000    -12.0000   6.000E+00   6.000E-02   0.000E+00   0.000E+00           T           T   1.136E+05   6.100E-01   0.000E+00   0.000E+00   0.000E+00   0.000E+00   0.000E+00         -           -           -  
   126           4     14.4338    -25.0000    -11.0000   6.000E+00   6.000E-02   0.000E+00   0.000E+00           T           T   1.136E+05   6.100E-01   0.000E+00   0.000E+00   0.000E+00   0.000E+00   0.000E+00         -           -           -  
   127           4     14.4338    -25.0000    -10.0000   6.000E+00   6.000E-02   0.000E+00   0.000E+00           T           T   1.136E+05   6.100E-01   0.000E+00   0.000E+00   0.000E+00   0.000E+00   0.000E+00         -           -           -  
   128           4     14.4338    -25.0000     -9.0000   6.000E+00   6.000E-02   0.000E+00   0.000E+00           T           T   1.136E+05   6.100E-01   0.000E+00   0.000E+00   0.000E+00   0.000E+00   0.000E+00         -           -           -  
   129           4     14.4338    -25.0000     -8.0000   6.000E+00   6.000E-02   0.000E+00   0.000E+00           T           T   1.136E+05   6.100E-01   0.000E+00   0.000E+00   0.000E+00   0.000E+00   0.000E+00         -           -           -  
   130           4     14.4338    -25.0000     -7.0000   6.000E+00   6.000E-02   0.000E+00   0.000E+00           T           T   9.430E+04   6.100E-01   0.000E+00   0.000E+00   0.000E+00   0.000E+00   0.000E+00         -           -           -  
   131           4     14.4338    -25.0000     -6.0000   6.000E+00   6.000E-02   0.000E+00   0.000E+00           T           F   0.000E+00   6.100E-01   0.000E+00   0.000E+00   0.000E+00   0.000E+00   0.000E+00         -           -           -  
   132           4     14.4338    -25.0000     -5.0000   6.000E+00   6.000E-02   0.000E+00   0.000E+00           T           F   0.000E+00   6.100E-01   0.000E+00   0.000E+00   0.000E+00   0.000E+00   0.000E+00         -           -           -  
   133           4     14.4338    -25.0000     -4.0000   6.000E+00   6.000E-02   0.000E+00   0.000E+00           T           F   0.000E+00   6.100E-01   0.000E+00   0.000E+00   0.000E+00   0.000E+00   0.000E+00         -           -           -  
   134           4     14.4338    -25.0000     -3.0000   6.000E+00   6.000E-02   0.000E+00   0.000E+00           T           F   0.000E+00   6.100E-01   0.000E+00   0.000E+00   0.000E+00   0.000E+00   0.000E+00         -           -           -  
   135           4     14.4338    -25.0000     -2.0000   6.000E+00   6.000E-02   0.000E+00   0.000E+00           T           F   0.000E+00   6.100E-01   0.000E+00   0.000E+00   0.000E+00   0.000E+00   0.000E+00         -           -           -  
   136           4     14.4338    -25.0000     -1.0000   6.000E+00   6.000E-02   0.000E+00   0.000E+00           T           F   0.000E+00   6.100E-01   0.000E+00   0.000E+00   0.000E+00   0.000E+00   0.000E+00         -           -           -  
   137           4     14.4338    -25.0000      0.0000   6.000E+00   6.000E-02   0.000E+00   0.000E+00           T           F   0.000E+00   6.100E-01   0.000E+00   0.000E+00   0.000E+00   0.000E+00   0.000E+00         -           -           -  
   138           4     14.4338    -25.0000      1.0000   6.000E+00   6.000E-02   0.000E+00   0.000E+00           T           F   0.000E+00   6.100E-01   0.000E+00   0.000E+00   0.000E+00   0.000E+00   0.000E+00         -           -           -  
   139           4     14.4338    -25.0000      2.0000   6.000E+00   6.000E-02   0.000E+00   0.000E+00           T           F   0.000E+00   6.100E-01   0.000E+00   0.000E+00   0.000E+00   0.000E+00   0.000E+00         -           -           -  
   140           4     14.4338    -25.0000      3.0000   6.000E+00   6.000E-02   0.000E+00   0.000E+00           T           F   0.000E+00   6.100E-01   0.000E+00   0.000E+00   0.000E+00   0.000E+00   0.000E+00         -           -           -  
   141           4     14.4338    -25.0000      4.0000   6.000E+00   6.000E-02   0.000E+00   0.000E+00           T           F   0.000E+00   6.100E-01   0.000E+00   0.000E+00   0.000E+00   0.000E+00   0.000E+00         -           -           -  
   142           4     14.4338    -25.0000      5.0000   6.000E+00   6.000E-02   0.000E+00   0.000E+00           T           F   0.000E+00   6.100E-01   0.000E+00   0.000E+00   0.000E+00   0.000E+00   0.000E+00         -           -           -  
   143           4     14.4338    -25.0000      6.0000   6.000E+00   6.000E-02   0.000E+00   0.000E+00           T           F   0.000E+00   6.100E-01   0.000E+00   0.000E+00   0.000E+00   0.000E+00   0.000E+00         -           -           -  
   144           4     14.4338    -25.0000      7.0000   6.000E+00   6.000E-02   0.000E+00   0.000E+00           T           F   0.000E+00   6.100E-01   0.000E+00   0.000E+00   0.000E+00   0.000E+00   0.000E+00         -           -           -  
   145           4     14.4338    -25.0000      8.0000   6.000E+00   6.000E-02   0.000E+00   0.000E+00           T           F   0.000E+00   6.100E-01   0.000E+00   0.000E+00   0.000E+00   0.000E+00   0.000E+00         -           -           -  
   146           4     14.4338    -25.0000      9.0000   6.000E+00   6.000E-02   0.000E+00   0.000E+00           T           F   0.000E+00   6.100E-01   0.000E+00   0.000E+00   0.000E+00   0.000E+00   0.000E+00         -           -           -  
   147           4     14.4338    -25.0000     10.0000   6.000E+00   6.000E-02   0.000E+00   0.000E+00           T           F   0.000E+00   6.100E-01   0.000E+00   0.000E+00   0.000E+00   0.000E+00   0.000E+00         -           -           -  
   148           4     14.4338    -25.0000     11.0000   6.000E+00   6.000E-02   0.000E+00   0.000E+00           T           F   0.000E+00   6.100E-01   0.000E+00   0.000E+00   0.000E+00   0.000E+00   0.000E+00         -           -           -  
   149           5     14.4338     25.0000    -18.9500   1.200E+01   6.000E-02   0.000E+00   0.000E+00           T           T   4.545E+05   6.800E-01   0.000E+00   0.000E+00   0.000E+00   0.000E+00   0.000E+00         -           -           -  
   150           5     14.4338     25.0000    -17.9600   1.200E+01   6.000E-02   0.000E+00   0.000E+00           T           T   4.545E+05   6.800E-01   0.000E+00   0.000E+00   0.000E+00   0.000E+00   0.000E+00         -           -           -  
   151           5     14.4338     25.0000    -16.9700   1.200E+01   6.000E-02   0.000E+00   0.000E+00           T           T   4.545E+05   6.800E-01   0.000E+00   0.000E+00   0.000E+00   0.000E+00   0.000E+00         -           -           -  
   152           5     14.4338     25.0000    -15.9800   1.200E+01   6.000E-02   0.000E+00   0.000E+00           T           T   4.545E+05   6.800E-01   0.000E+00   0.000E+00   0.000E+00   0.000E+00   0.000E+00         -           -           -  
   153           5     14.4338     25.0000    -14.9900   1.200E+01   6.000E-02   0.000E+00   0.000E+00           T           T   4.591E+04   6.800E-01   0.000E+00   0.000E+00   0.000E+00   0.000E+00   0.000E+00         -           -           -  
   154           6    -28.8675      0.0000    -18.9500   1.200E+01   6.000E-02   0.000E+00   0.000E+00           T           T   4.545E+05   6.800E-01   0.000E+00   0.000E+00   0.000E+00   0.000E+00   0.000E+00         -           -           -  
   155           6    -28.8675      0.0000    -17.9600   1.200E+01   6.000E-02   0.000E+00   0.000E+00           T           T   4.545E+05   6.800E-01   0.000E+00   0.000E+00   0.000E+00   0.000E+00   0.000E+00         -           -           -  
   156           6    -28.8675      0.0000    -16.9700   1.200E+01   6.000E-02   0.000E+00   0.000E+00           T           T   4.545E+05   6.800E-01   0.000E+00   0.000E+00   0.000E+00   0.000E+00   0.000E+00         -           -           -  
   157           6    -28.8675      0.0000    -15.9800   1.200E+01   6.000E-02   0.000E+00   0.000E+00           T           T   4.545E+05   6.800E-01   0.000E+00   0.000E+00   0.000E+00   0.000E+00   0.000E+00         -           -           -  
   158           6    -28.8675      0.0000    -14.9900   1.200E+01   6.000E-02   0.000E+00   0.000E+00           T           T   4.591E+04   6.800E-01   0.000E+00   0.000E+00   0.000E+00   0.000E+00   0.000E+00         -           -           -  
   159           7     14.4338    -25.0000    -18.9500   1.200E+01   6.000E-02   0.000E+00   0.000E+00           T           T   4.545E+05   6.800E-01   0.000E+00   0.000E+00   0.000E+00   0.000E+00   0.000E+00         -           -           -  
   160           7     14.4338    -25.0000    -17.9600   1.200E+01   6.000E-02   0.000E+00   0.000E+00           T           T   4.545E+05   6.800E-01   0.000E+00   0.000E+00   0.000E+00   0.000E+00   0.000E+00         -           -           -  
   161           7     14.4338    -25.0000    -16.9700   1.200E+01   6.000E-02   0.000E+00   0.000E+00           T           T   4.545E+05   6.800E-01   0.000E+00   0.000E+00   0.000E+00   0.000E+00   0.000E+00         -           -           -  
   162           7     14.4338    -25.0000    -15.9800   1.200E+01   6.000E-02   0.000E+00   0.000E+00           T           T   4.545E+05   6.800E-01   0.000E+00   0.000E+00   0.000E+00   0.000E+00   0.000E+00         -           -           -  
   163           7     14.4338    -25.0000    -14.9900   1.200E+01   6.000E-02   0.000E+00   0.000E+00           T           T   4.591E+04   6.800E-01   0.000E+00   0.000E+00   0.000E+00   0.000E+00   0.000E+00         -           -           -  
   164           8      8.3716     21.5000     10.0000   8.000E-01   1.750E-02   0.000E+00   0.000E+00           T           F   0.000E+00   6.300E-01   0.000E+00   0.000E+00   0.000E+00   0.000E+00   0.000E+00         -           -           -  
   165           8      7.5056     21.0000     10.0000   8.000E-01   1.750E-02   0.000E+00   0.000E+00           T           F   0.000E+00   6.300E-01   0.000E+00   0.000E+00   0.000E+00   0.000E+00   0.000E+00         -           -           -  
   166           8      6.6395     20.5000     10.0000   8.000E-01   1.750E-02   0.000E+00   0.000E+00           T           F   0.000E+00   6.300E-01   0.000E+00   0.000E+00   0.000E+00   0.000E+00   0.000E+00         -           -           -  
   167           8      5.7735     20.0000     10.0000   8.000E-01   1.750E-02   0.000E+00   0.000E+00           T           F   0.000E+00   6.300E-01   0.000E+00   0.000E+00   0.000E+00   0.000E+00   0.000E+00         -           -           -  
   168           8      4.9075     19.5000     10.0000   8.000E-01   1.750E-02   0.000E+00   0.000E+00           T           F   0.000E+00   6.300E-01   0.000E+00   0.000E+00   0.000E+00   0.000E+00   0.000E+00         -           -           -  
   169           8      4.0415     19.0000     10.0000   8.000E-01   1.750E-02   0.000E+00   0.000E+00           T           F   0.000E+00   6.300E-01   0.000E+00   0.000E+00   0.000E+00   0.000E+00   0.000E+00         -           -           -  
   170           8      3.1754     18.5000     10.0000   8.000E-01   1.750E-02   0.000E+00   0.000E+00           T           F   0.000E+00   6.300E-01   0.000E+00   0.000E+00   0.000E+00   0.000E+00   0.000E+00         -           -           -  
   171           8      2.3094     18.0000     10.0000   8.000E-01   1.750E-02   0.000E+00   0.000E+00           T           F   0.000E+00   6.300E-01   0.000E+00   0.000E+00   0.000E+00   0.000E+00   0.000E+00         -           -           -  
   172           8      1.4434     17.5000     10.0000   8.000E-01   1.750E-02   0.000E+00   0.000E+00           T           F   0.000E+00   6.300E-01   0.000E+00   0.000E+00   0.000E+00   0.000E+00   0.000E+00         -           -           -  
   173           8      0.5774     17.0000     10.0000   8.000E-01   1.750E-02   0.000E+00   0.000E+00           T           F   0.000E+00   6.300E-01   0.000E+00   0.000E+00   0.000E+00   0.000E+00   0.000E+00         -           -           -  
   174           8     -0.2887     16.5000     10.0000   8.000E-01   1.750E-02   0.000E+00   0.000E+00           T           F   0.000E+00   6.300E-01   0.000E+00   0.000E+00   0.000E+00   0.000E+00   0.000E+00         -           -           -  
   175           8     -1.1547     16.0000     10.0000   8.000E-01   1.750E-02   0.000E+00   0.000E+00           T           F   0.000E+00   6.300E-01   0.000E+00   0.000E+00   0.000E+00   0.000E+00   0.000E+00         -           -           -  
   176           8     -2.0207     15.5000     10.0000   8.000E-01   1.750E-02   0.000E+00   0.000E+00           T           F   0.000E+00   6.300E-01   0.000E+00   0.000E+00   0.000E+00   0.000E+00   0.000E+00         -           -           -  
   177           8     -2.8867     15.0000     10.0000   8.000E-01   1.750E-02   0.000E+00   0.000E+00           T           F   0.000E+00   6.300E-01   0.000E+00   0.000E+00   0.000E+00   0.000E+00   0.000E+00         -           -           -  
   178           8     -3.7528     14.5000     10.0000   8.000E-01   1.750E-02   0.000E+00   0.000E+00           T           F   0.000E+00   6.300E-01   0.000E+00   0.000E+00   0.000E+00   0.000E+00   0.000E+00         -           -           -  
   179           8     -4.6188     14.0000     10.0000   8.000E-01   1.750E-02   0.000E+00   0.000E+00           T           F   0.000E+00   6.300E-01   0.000E+00   0.000E+00   0.000E+00   0.000E+00   0.000E+00         -           -           -  
   180           8     -5.4848     13.5000     10.0000   8.000E-01   1.750E-02   0.000E+00   0.000E+00           T           F   0.000E+00   6.300E-01   0.000E+00   0.000E+00   0.000E+00   0.000E+00   0.000E+00         -           -           -  
   181           8     -6.3508     13.0000     10.0000   8.000E-01   1.750E-02   0.000E+00   0.000E+00           T           F   0.000E+00   6.300E-01   0.000E+00   0.000E+00   0.000E+00   0.000E+00   0.000E+00         -           -           -  
   182           8     -7.2168     12.5000     10.0000   8.000E-01   1.750E-02   0.000E+00   0.000E+00           T           F   0.000E+00   6.300E-01   0.000E+00   0.000E+00   0.000E+00   0.000E+00   0.000E+00         -           -           -  
   183           8     -8.0829     12.0000     10.0000   8.000E-01   1.750E-02   0.000E+00   0.000E+00           T           F   0.000E+00   6.300E-01   0.000E+00   0.000E+00   0.000E+00   0.000E+00   0.000E+00         -           -           -  
   184           8     -8.9489     11.5000     10.0000   8.000E-01   1.750E-02   0.000E+00   0.000E+00           T           F   0.000E+00   6.300E-01   0.000E+00   0.000E+00   0.000E+00   0.000E+00   0.000E+00         -           -           -  
   185           8     -9.8149     11.0000     10.0000   8.000E-01   1.750E-02   0.000E+00   0.000E+00           T           F   0.000E+00   6.300E-01   0.000E+00   0.000E+00   0.000E+00   0.000E+00   0.000E+00         -           -           -  
   186           8    -10.6809     10.5000     10.0000   8.000E-01   1.750E-02   0.000E+00   0.000E+00           T           F   0.000E+00   6.300E-01   0.000E+00   0.000E+00   0.000E+00   0.000E+00   0.000E+00         -           -           -  
   187           8    -11.5470     10.0000     10.0000   8.000E-01   1.750E-02   0.000E+00   0.000E+00           T           F   0.000E+00   6.300E-01   0.000E+00   0.000E+00   0.000E+00   0.000E+00   0.000E+00         -           -           -  
   188           8    -12.4130      9.5000     10.0000   8.000E-01   1.750E-02   0.000E+00   0.000E+00           T           F   0.000E+00   6.300E-01   0.000E+00   0.000E+00   0.000E+00   0.000E+00   0.000E+00         -           -           -  
   189           8    -13.2790      9.0000     10.0000   8.000E-01   1.750E-02   0.000E+00   0.000E+00           T           F   0.000E+00   6.300E-01   0.000E+00   0.000E+00   0.000E+00   0.000E+00   0.000E+00         -           -           -  
   190           8    -14.1450      8.5000     10.0000   8.000E-01   1.750E-02   0.000E+00   0.000E+00           T           F   0.000E+00   6.300E-01   0.000E+00   0.000E+00   0.000E+00   0.000E+00   0.000E+00         -           -           -  
   191           8    -15.0111      8.0000     10.0000   8.000E-01   1.750E-02   0.000E+00   0.000E+00           T           F   0.000E+00   6.300E-01   0.000E+00   0.000E+00   0.000E+00   0.000E+00   0.000E+00         -           -           -  
   192           8    -15.8771      7.5000     10.0000   8.000E-01   1.750E-02   0.000E+00   0.000E+00           T           F   0.000E+00   6.300E-01   0.000E+00   0.000E+00   0.000E+00   0.000E+00   0.000E+00         -           -           -  
   193           8    -16.7431      7.0000     10.0000   8.000E-01   1.750E-02   0.000E+00   0.000E+00           T           F   0.000E+00   6.300E-01   0.000E+00   0.000E+00   0.000E+00   0.000E+00   0.000E+00         -           -           -  
   194           8    -17.6091      6.5000     10.0000   8.000E-01   1.750E-02   0.000E+00   0.000E+00           T           F   0.000E+00   6.300E-01   0.000E+00   0.000E+00   0.000E+00   0.000E+00   0.000E+00         -           -           -  
   195           8    -18.4752      6.0000     10.0000   8.000E-01   1.750E-02   0.000E+00   0.000E+00           T           F   0.000E+00   6.300E-01   0.000E+00   0.000E+00   0.000E+00   0.000E+00   0.000E+00         -           -           -  
   196           8    -19.3412      5.5000     10.0000   8.000E-01   1.750E-02   0.000E+00   0.000E+00           T           F   0.000E+00   6.300E-01   0.000E+00   0.000E+00   0.000E+00   0.000E+00   0.000E+00         -           -           -  
   197           8    -20.2072      5.0000     10.0000   8.000E-01   1.750E-02   0.000E+00   0.000E+00           T           F   0.000E+00   6.300E-01   0.000E+00   0.000E+00   0.000E+00   0.000E+00   0.000E+00         -           -           -  
   198           8    -21.0732      4.5000     10.0000   8.000E-01   1.750E-02   0.000E+00   0.000E+00           T           F   0.000E+00   6.300E-01   0.000E+00   0.000E+00   0.000E+00   0.000E+00   0.000E+00         -           -           -  
   199           8    -21.9393      4.0000     10.0000   8.000E-01   1.750E-02   0.000E+00   0.000E+00           T           F   0.000E+00   6.300E-01   0.000E+00   0.000E+00   0.000E+00   0.000E+00   0.000E+00         -           -           -  
   200           8    -22.8053      3.5000     10.0000   8.000E-01   1.750E-02   0.000E+00   0.000E+00           T           F   0.000E+00   6.300E-01   0.000E+00   0.000E+00   0.000E+00   0.000E+00   0.000E+00         -           -           -  
   201           9    -22.8053     -3.5000     10.0000   8.000E-01   1.750E-02   0.000E+00   0.000E+00           T           F   0.000E+00   6.300E-01   0.000E+00   0.000E+00   0.000E+00   0.000E+00   0.000E+00         -           -           -  
   202           9    -21.9393     -4.0000     10.0000   8.000E-01   1.750E-02   0.000E+00   0.000E+00           T           F   0.000E+00   6.300E-01   0.000E+00   0.000E+00   0.000E+00   0.000E+00   0.000E+00         -           -           -  
   203           9    -21.0732     -4.5000     10.0000   8.000E-01   1.750E-02   0.000E+00   0.000E+00           T           F   0.000E+00   6.300E-01   0.000E+00   0.000E+00   0.000E+00   0.000E+00   0.000E+00         -           -           -  
   204           9    -20.2072     -5.0000     10.0000   8.000E-01   1.750E-02   0.000E+00   0.000E+00           T           F   0.000E+00   6.300E-01   0.000E+00   0.000E+00   0.000E+00   0.000E+00   0.000E+00         -           -           -  
   205           9    -19.3412     -5.5000     10.0000   8.000E-01   1.750E-02   0.000E+00   0.000E+00           T           F   0.000E+00   6.300E-01   0.000E+00   0.000E+00   0.000E+00   0.000E+00   0.000E+00         -           -           -  
   206           9    -18.4752     -6.0000     10.0000   8.000E-01   1.750E-02   0.000E+00   0.000E+00           T           F   0.000E+00   6.300E-01   0.000E+00   0.000E+00   0.000E+00   0.000E+00   0.000E+00         -           -           -  
   207           9    -17.6091     -6.5000     10.0000   8.000E-01   1.750E-02   0.000E+00   0.000E+00           T           F   0.000E+00   6.300E-01   0.000E+00   0.000E+00   0.000E+00   0.000E+00   0.000E+00         -           -           -  
   208           9    -16.7431     -7.0000     10.0000   8.000E-01   1.750E-02   0.000E+00   0.000E+00           T           F   0.000E+00   6.300E-01   0.000E+00   0.000E+00   0.000E+00   0.000E+00   0.000E+00         -           -           -  
   209           9    -15.8771     -7.5000     10.0000   8.000E-01   1.750E-02   0.000E+00   0.000E+00           T           F   0.000E+00   6.300E-01   0.000E+00   0.000E+00   0.000E+00   0.000E+00   0.000E+00         -           -           -  
   210           9    -15.0111     -8.0000     10.0000   8.000E-01   1.750E-02   0.000E+00   0.000E+00           T           F   0.000E+00   6.300E-01   0.000E+00   0.000E+00   0.000E+00   0.000E+00   0.000E+00         -           -           -  
   211           9    -14.1450     -8.5000     10.0000   8.000E-01   1.750E-02   0.000E+00   0.000E+00           T           F   0.000E+00   6.300E-01   0.000E+00   0.000E+00   0.000E+00   0.000E+00   0.000E+00         -           -           -  
   212           9    -13.2790     -9.0000     10.0000   8.000E-01   1.750E-02   0.000E+00   0.000E+00           T           F   0.000E+00   6.300E-01   0.000E+00   0.000E+00   0.000E+00   0.000E+00   0.000E+00         -           -           -  
   213           9    -12.4130     -9.5000     10.0000   8.000E-01   1.750E-02   0.000E+00   0.000E+00           T           F   0.000E+00   6.300E-01   0.000E+00   0.000E+00   0.000E+00   0.000E+00   0.000E+00         -           -           -  
   214           9    -11.5470    -10.0000     10.0000   8.000E-01   1.750E-02   0.000E+00   0.000E+00           T           F   0.000E+00   6.300E-01   0.000E+00   0.000E+00   0.000E+00   0.000E+00   0.000E+00         -           -           -  
   215           9    -10.6809    -10.5000     10.0000   8.000E-01   1.750E-02   0.000E+00   0.000E+00           T           F   0.000E+00   6.300E-01   0.000E+00   0.000E+00   0.000E+00   0.000E+00   0.000E+00         -           -           -  
   216           9     -9.8149    -11.0000     10.0000   8.000E-01   1.750E-02   0.000E+00   0.000E+00           T           F   0.000E+00   6.300E-01   0.000E+00   0.000E+00   0.000E+00   0.000E+00   0.000E+00         -           -           -  
   217           9     -8.9489    -11.5000     10.0000   8.000E-01   1.750E-02   0.000E+00   0.000E+00           T           F   0.000E+00   6.300E-01   0.000E+00   0.000E+00   0.000E+00   0.000E+00   0.000E+00         -           -           -  
   218           9     -8.0829    -12.0000     10.0000   8.000E-01   1.750E-02   0.000E+00   0.000E+00           T           F   0.000E+00   6.300E-01   0.000E+00   0.000E+00   0.000E+00   0.000E+00   0.000E+00         -           -           -  
   219           9     -7.2168    -12.5000     10.0000   8.000E-01   1.750E-02   0.000E+00   0.000E+00           T           F   0.000E+00   6.300E-01   0.000E+00   0.000E+00   0.000E+00   0.000E+00   0.000E+00         -           -           -  
   220           9     -6.3508    -13.0000     10.0000   8.000E-01   1.750E-02   0.000E+00   0.000E+00           T           F   0.000E+00   6.300E-01   0.000E+00   0.000E+00   0.000E+00   0.000E+00   0.000E+00         -           -           -  
   221           9     -5.4848    -13.5000     10.0000   8.000E-01   1.750E-02   0.000E+00   0.000E+00           T           F   0.000E+00   6.300E-01   0.000E+00   0.000E+00   0.000E+00   0.000E+00   0.000E+00         -           -           -  
   222           9     -4.6188    -14.0000     10.0000   8.000E-01   1.750E-02   0.000E+00   0.000E+00           T           F   0.000E+00   6.300E-01   0.000E+00   0.000E+00   0.000E+00   0.000E+00   0.000E+00         -           -           -  
   223           9     -3.7528    -14.5000     10.0000   8.000E-01   1.750E-02   0.000E+00   0.000E+00           T           F   0.000E+00   6.300E-01   0.000E+00   0.000E+00   0.000E+00   0.000E+00   0.000E+00         -           -           -  
   224           9     -2.8867    -15.0000     10.0000   8.000E-01   1.750E-02   0.000E+00   0.000E+00           T           F   0.000E+00   6.300E-01   0.000E+00   0.000E+00   0.000E+00   0.000E+00   0.000E+00         -           -           -  
   225           9     -2.0207    -15.5000     10.0000   8.000E-01   1.750E-02   0.000E+00   0.000E+00           T           F   0.000E+00   6.300E-01   0.000E+00   0.000E+00   0.000E+00   0.000E+00   0.000E+00         -           -           -  
   226           9     -1.1547    -16.0000     10.0000   8.000E-01   1.750E-02   0.000E+00   0.000E+00           T           F   0.000E+00   6.300E-01   0.000E+00   0.000E+00   0.000E+00   0.000E+00   0.000E+00         -           -           -  
   227           9     -0.2887    -16.5000     10.0000   8.000E-01   1.750E-02   0.000E+00   0.000E+00           T           F   0.000E+00   6.300E-01   0.000E+00   0.000E+00   0.000E+00   0.000E+00   0.000E+00         -           -           -  
   228           9      0.5774    -17.0000     10.0000   8.000E-01   1.750E-02   0.000E+00   0.000E+00           T           F   0.000E+00   6.300E-01   0.000E+00   0.000E+00   0.000E+00   0.000E+00   0.000E+00         -           -           -  
   229           9      1.4434    -17.5000     10.0000   8.000E-01   1.750E-02   0.000E+00   0.000E+00           T           F   0.000E+00   6.300E-01   0.000E+00   0.000E+00   0.000E+00   0.000E+00   0.000E+00         -           -           -  
   230           9      2.3094    -18.0000     10.0000   8.000E-01   1.750E-02   0.000E+00   0.000E+00           T           F   0.000E+00   6.300E-01   0.000E+00   0.000E+00   0.000E+00   0.000E+00   0.000E+00         -           -           -  
   231           9      3.1754    -18.5000     10.0000   8.000E-01   1.750E-02   0.000E+00   0.000E+00           T           F   0.000E+00   6.300E-01   0.000E+00   0.000E+00   0.000E+00   0.000E+00   0.000E+00         -           -           -  
   232           9      4.0415    -19.0000     10.0000   8.000E-01   1.750E-02   0.000E+00   0.000E+00           T           F   0.000E+00   6.300E-01   0.000E+00   0.000E+00   0.000E+00   0.000E+00   0.000E+00         -           -           -  
   233           9      4.9075    -19.5000     10.0000   8.000E-01   1.750E-02   0.000E+00   0.000E+00           T           F   0.000E+00   6.300E-01   0.000E+00   0.000E+00   0.000E+00   0.000E+00   0.000E+00         -           -           -  
   234           9      5.7735    -20.0000     10.0000   8.000E-01   1.750E-02   0.000E+00   0.000E+00           T           F   0.000E+00   6.300E-01   0.000E+00   0.000E+00   0.000E+00   0.000E+00   0.000E+00         -           -           -  
   235           9      6.6395    -20.5000     10.0000   8.000E-01   1.750E-02   0.000E+00   0.000E+00           T           F   0.000E+00   6.300E-01   0.000E+00   0.000E+00   0.000E+00   0.000E+00   0.000E+00         -           -           -  
   236           9      7.5056    -21.0000     10.0000   8.000E-01   1.750E-02   0.000E+00   0.000E+00           T           F   0.000E+00   6.300E-01   0.000E+00   0.000E+00   0.000E+00   0.000E+00   0.000E+00         -           -           -  
   237           9      8.3716    -21.5000     10.0000   8.000E-01   1.750E-02   0.000E+00   0.000E+00           T           F   0.000E+00   6.300E-01   0.000E+00   0.000E+00   0.000E+00   0.000E+00   0.000E+00         -           -           -  
   238          10     14.4337    -18.0000     10.0000   8.000E-01   1.750E-02   0.000E+00   0.000E+00           T           F   0.000E+00   6.300E-01   0.000E+00   0.000E+00   0.000E+00   0.000E+00   0.000E+00         -           -           -  
   239          10     14.4337    -17.0000     10.0000   8.000E-01   1.750E-02   0.000E+00   0.000E+00           T           F   0.000E+00   6.300E-01   0.000E+00   0.000E+00   0.000E+00   0.000E+00   0.000E+00         -           -           -  
   240          10     14.4337    -16.0000     10.0000   8.000E-01   1.750E-02   0.000E+00   0.000E+00           T           F   0.000E+00   6.300E-01   0.000E+00   0.000E+00   0.000E+00   0.000E+00   0.000E+00         -           -           -  
   241          10     14.4337    -15.0000     10.0000   8.000E-01   1.750E-02   0.000E+00   0.000E+00           T           F   0.000E+00   6.300E-01   0.000E+00   0.000E+00   0.000E+00   0.000E+00   0.000E+00         -           -           -  
   242          10     14.4337    -14.0000     10.0000   8.000E-01   1.750E-02   0.000E+00   0.000E+00           T           F   0.000E+00   6.300E-01   0.000E+00   0.000E+00   0.000E+00   0.000E+00   0.000E+00         -           -           -  
   243          10     14.4337    -13.0000     10.0000   8.000E-01   1.750E-02   0.000E+00   0.000E+00           T           F   0.000E+00   6.300E-01   0.000E+00   0.000E+00   0.000E+00   0.000E+00   0.000E+00         -           -           -  
   244          10     14.4337    -12.0000     10.0000   8.000E-01   1.750E-02   0.000E+00   0.000E+00           T           F   0.000E+00   6.300E-01   0.000E+00   0.000E+00   0.000E+00   0.000E+00   0.000E+00         -           -           -  
   245          10     14.4337    -11.0000     10.0000   8.000E-01   1.750E-02   0.000E+00   0.000E+00           T           F   0.000E+00   6.300E-01   0.000E+00   0.000E+00   0.000E+00   0.000E+00   0.000E+00         -           -           -  
   246          10     14.4337    -10.0000     10.0000   8.000E-01   1.750E-02   0.000E+00   0.000E+00           T           F   0.000E+00   6.300E-01   0.000E+00   0.000E+00   0.000E+00   0.000E+00   0.000E+00         -           -           -  
   247          10     14.4337     -9.0000     10.0000   8.000E-01   1.750E-02   0.000E+00   0.000E+00           T           F   0.000E+00   6.300E-01   0.000E+00   0.000E+00   0.000E+00   0.000E+00   0.000E+00         -           -           -  
   248          10     14.4337     -8.0000     10.0000   8.000E-01   1.750E-02   0.000E+00   0.000E+00           T           F   0.000E+00   6.300E-01   0.000E+00   0.000E+00   0.000E+00   0.000E+00   0.000E+00         -           -           -  
   249          10     14.4337     -7.0000     10.0000   8.000E-01   1.750E-02   0.000E+00   0.000E+00           T           F   0.000E+00   6.300E-01   0.000E+00   0.000E+00   0.000E+00   0.000E+00   0.000E+00         -           -           -  
   250          10     14.4338     -6.0000     10.0000   8.000E-01   1.750E-02   0.000E+00   0.000E+00           T           F   0.000E+00   6.300E-01   0.000E+00   0.000E+00   0.000E+00   0.000E+00   0.000E+00         -           -           -  
   251          10     14.4337     -5.0000     10.0000   8.000E-01   1.750E-02   0.000E+00   0.000E+00           T           F   0.000E+00   6.300E-01   0.000E+00   0.000E+00   0.000E+00   0.000E+00   0.000E+00         -           -           -  
   252          10     14.4337     -4.0000     10.0000   8.000E-01   1.750E-02   0.000E+00   0.000E+00           T           F   0.000E+00   6.300E-01   0.000E+00   0.000E+00   0.000E+00   0.000E+00   0.000E+00         -           -           -  
   253          10     14.4337     -3.0000     10.0000   8.000E-01   1.750E-02   0.000E+00   0.000E+00           T           F   0.000E+00   6.300E-01   0.000E+00   0.000E+00   0.000E+00   0.000E+00   0.000E+00         -           -           -  
   254          10     14.4337     -2.0000     10.0000   8.000E-01   1.750E-02   0.000E+00   0.000E+00           T           F   0.000E+00   6.300E-01   0.000E+00   0.000E+00   0.000E+00   0.000E+00   0.000E+00         -           -           -  
   255          10     14.4337     -1.0000     10.0000   8.000E-01   1.750E-02   0.000E+00   0.000E+00           T           F   0.000E+00   6.300E-01   0.000E+00   0.000E+00   0.000E+00   0.000E+00   0.000E+00         -           -           -  
   256          10     14.4337      0.0000     10.0000   8.000E-01   1.750E-02   0.000E+00   0.000E+00           T           F   0.000E+00   6.300E-01   0.000E+00   0.000E+00   0.000E+00   0.000E+00   0.000E+00         -           -           -  
   257          10     14.4337      1.0000     10.0000   8.000E-01   1.750E-02   0.000E+00   0.000E+00           T           F   0.000E+00   6.300E-01   0.000E+00   0.000E+00   0.000E+00   0.000E+00   0.000E+00         -           -           -  
   258          10     14.4337      2.0000     10.0000   8.000E-01   1.750E-02   0.000E+00   0.000E+00           T           F   0.000E+00   6.300E-01   0.000E+00   0.000E+00   0.000E+00   0.000E+00   0.000E+00         -           -           -  
   259          10     14.4337      3.0000     10.0000   8.000E-01   1.750E-02   0.000E+00   0.000E+00           T           F   0.000E+00   6.300E-01   0.000E+00   0.000E+00   0.000E+00   0.000E+00   0.000E+00         -           -           -  
   260          10     14.4337      4.0000     10.0000   8.000E-01   1.750E-02   0.000E+00   0.000E+00           T           F   0.000E+00   6.300E-01   0.000E+00   0.000E+00   0.000E+00   0.000E+00   0.000E+00         -           -           -  
   261          10     14.4337      5.0000     10.0000   8.000E-01   1.750E-02   0.000E+00   0.000E+00           T           F   0.000E+00   6.300E-01   0.000E+00   0.000E+00   0.000E+00   0.000E+00   0.000E+00         -           -           -  
   262          10     14.4337      6.0000     10.0000   8.000E-01   1.750E-02   0.000E+00   0.000E+00           T           F   0.000E+00   6.300E-01   0.000E+00   0.000E+00   0.000E+00   0.000E+00   0.000E+00         -           -           -  
   263          10     14.4337      7.0000     10.0000   8.000E-01   1.750E-02   0.000E+00   0.000E+00           T           F   0.000E+00   6.300E-01   0.000E+00   0.000E+00   0.000E+00   0.000E+00   0.000E+00         -           -           -  
   264          10     14.4337      8.0000     10.0000   8.000E-01   1.750E-02   0.000E+00   0.000E+00           T           F   0.000E+00   6.300E-01   0.000E+00   0.000E+00   0.000E+00   0.000E+00   0.000E+00         -           -           -  
   265          10     14.4337      9.0000     10.0000   8.000E-01   1.750E-02   0.000E+00   0.000E+00           T           F   0.000E+00   6.300E-01   0.000E+00   0.000E+00   0.000E+00   0.000E+00   0.000E+00         -           -           -  
   266          10     14.4337     10.0000     10.0000   8.000E-01   1.750E-02   0.000E+00   0.000E+00           T           F   0.000E+00   6.300E-01   0.000E+00   0.000E+00   0.000E+00   0.000E+00   0.000E+00         -           -           -  
   267          10     14.4337     11.0000     10.0000   8.000E-01   1.750E-02   0.000E+00   0.000E+00           T           F   0.000E+00   6.300E-01   0.000E+00   0.000E+00   0.000E+00   0.000E+00   0.000E+00         -           -           -  
   268          10     14.4337     12.0000     10.0000   8.000E-01   1.750E-02   0.000E+00   0.000E+00           T           F   0.000E+00   6.300E-01   0.000E+00   0.000E+00   0.000E+00   0.000E+00   0.000E+00         -           -           -  
   269          10     14.4337     13.0000     10.0000   8.000E-01   1.750E-02   0.000E+00   0.000E+00           T           F   0.000E+00   6.300E-01   0.000E+00   0.000E+00   0.000E+00   0.000E+00   0.000E+00         -           -           -  
   270          10     14.4337     14.0000     10.0000   8.000E-01   1.750E-02   0.000E+00   0.000E+00           T           F   0.000E+00   6.300E-01   0.000E+00   0.000E+00   0.000E+00   0.000E+00   0.000E+00         -           -           -  
   271          10     14.4337     15.0000     10.0000   8.000E-01   1.750E-02   0.000E+00   0.000E+00           T           F   0.000E+00   6.300E-01   0.000E+00   0.000E+00   0.000E+00   0.000E+00   0.000E+00         -           -           -  
   272          10     14.4337     16.0000     10.0000   8.000E-01   1.750E-02   0.000E+00   0.000E+00           T           F   0.000E+00   6.300E-01   0.000E+00   0.000E+00   0.000E+00   0.000E+00   0.000E+00         -           -           -  
   273          10     14.4337     17.0000     10.0000   8.000E-01   1.750E-02   0.000E+00   0.000E+00           T           F   0.000E+00   6.300E-01   0.000E+00   0.000E+00   0.000E+00   0.000E+00   0.000E+00         -           -           -  
   274          10     14.4337     18.0000     10.0000   8.000E-01   1.750E-02   0.000E+00   0.000E+00           T           F   0.000E+00   6.300E-01   0.000E+00   0.000E+00   0.000E+00   0.000E+00   0.000E+00         -           -           -  
   275          11      3.1754     18.5000    -17.0000   8.000E-01   1.750E-02   0.000E+00   0.000E+00           T           F   0.000E+00   6.300E-01   0.000E+00   0.000E+00   0.000E+00   0.000E+00   0.000E+00         -           -           -  
   276          11      2.3094     18.0000    -17.0000   8.000E-01   1.750E-02   0.000E+00   0.000E+00           T           F   0.000E+00   6.300E-01   0.000E+00   0.000E+00   0.000E+00   0.000E+00   0.000E+00         -           -           -  
   277          11      1.4434     17.5000    -17.0000   8.000E-01   1.750E-02   0.000E+00   0.000E+00           T           F   0.000E+00   6.300E-01   0.000E+00   0.000E+00   0.000E+00   0.000E+00   0.000E+00         -           -           -  
   278          11      0.5773     17.0000    -17.0000   8.000E-01   1.750E-02   0.000E+00   0.000E+00           T           F   0.000E+00   6.300E-01   0.000E+00   0.000E+00   0.000E+00   0.000E+00   0.000E+00         -           -           -  
   279          11     -0.2887     16.5000    -17.0000   8.000E-01   1.750E-02   0.000E+00   0.000E+00           T           F   0.000E+00   6.300E-01   0.000E+00   0.000E+00   0.000E+00   0.000E+00   0.000E+00         -           -           -  
   280          11     -1.1547     16.0000    -17.0000   8.000E-01   1.750E-02   0.000E+00   0.000E+00           T           F   0.000E+00   6.300E-01   0.000E+00   0.000E+00   0.000E+00   0.000E+00   0.000E+00         -           -           -  
   281          11     -2.0207     15.5000    -17.0000   8.000E-01   1.750E-02   0.000E+00   0.000E+00           T           F   0.000E+00   6.300E-01   0.000E+00   0.000E+00   0.000E+00   0.000E+00   0.000E+00         -           -           -  
   282          11     -2.8868     15.0000    -17.0000   8.000E-01   1.750E-02   0.000E+00   0.000E+00           T           F   0.000E+00   6.300E-01   0.000E+00   0.000E+00   0.000E+00   0.000E+00   0.000E+00         -           -           -  
   283          11     -3.7528     14.5000    -17.0000   8.000E-01   1.750E-02   0.000E+00   0.000E+00           T           F   0.000E+00   6.300E-01   0.000E+00   0.000E+00   0.000E+00   0.000E+00   0.000E+00         -           -           -  
   284          11     -4.6188     14.0000    -17.0000   8.000E-01   1.750E-02   0.000E+00   0.000E+00           T           F   0.000E+00   6.300E-01   0.000E+00   0.000E+00   0.000E+00   0.000E+00   0.000E+00         -           -           -  
   285          11     -5.4848     13.5000    -17.0000   8.000E-01   1.750E-02   0.000E+00   0.000E+00           T           F   0.000E+00   6.300E-01   0.000E+00   0.000E+00   0.000E+00   0.000E+00   0.000E+00         -           -           -  
   286          11     -6.3509     13.0000    -17.0000   8.000E-01   1.750E-02   0.000E+00   0.000E+00           T           F   0.000E+00   6.300E-01   0.000E+00   0.000E+00   0.000E+00   0.000E+00   0.000E+00         -           -           -  
   287          11     -7.2169     12.5000    -17.0000   8.000E-01   1.750E-02   0.000E+00   0.000E+00           T           F   0.000E+00   6.300E-01   0.000E+00   0.000E+00   0.000E+00   0.000E+00   0.000E+00         -           -           -  
   288          11     -8.0829     12.0000    -17.0000   8.000E-01   1.750E-02   0.000E+00   0.000E+00           T           F   0.000E+00   6.300E-01   0.000E+00   0.000E+00   0.000E+00   0.000E+00   0.000E+00         -           -           -  
   289          11     -8.9489     11.5000    -17.0000   8.000E-01   1.750E-02   0.000E+00   0.000E+00           T           F   0.000E+00   6.300E-01   0.000E+00   0.000E+00   0.000E+00   0.000E+00   0.000E+00         -           -           -  
   290          11     -9.8150     11.0000    -17.0000   8.000E-01   1.750E-02   0.000E+00   0.000E+00           T           F   0.000E+00   6.300E-01   0.000E+00   0.000E+00   0.000E+00   0.000E+00   0.000E+00         -           -           -  
   291          11    -10.6810     10.5000    -17.0000   8.000E-01   1.750E-02   0.000E+00   0.000E+00           T           F   0.000E+00   6.300E-01   0.000E+00   0.000E+00   0.000E+00   0.000E+00   0.000E+00         -           -           -  
   292          11    -11.5470     10.0000    -17.0000   8.000E-01   1.750E-02   0.000E+00   0.000E+00           T           F   0.000E+00   6.300E-01   0.000E+00   0.000E+00   0.000E+00   0.000E+00   0.000E+00         -           -           -  
   293          11    -12.4130      9.5000    -17.0000   8.000E-01   1.750E-02   0.000E+00   0.000E+00           T           F   0.000E+00   6.300E-01   0.000E+00   0.000E+00   0.000E+00   0.000E+00   0.000E+00         -           -           -  
   294          11    -13.2791      9.0000    -17.0000   8.000E-01   1.750E-02   0.000E+00   0.000E+00           T           F   0.000E+00   6.300E-01   0.000E+00   0.000E+00   0.000E+00   0.000E+00   0.000E+00         -           -           -  
   295          11    -14.1451      8.5000    -17.0000   8.000E-01   1.750E-02   0.000E+00   0.000E+00           T           F   0.000E+00   6.300E-01   0.000E+00   0.000E+00   0.000E+00   0.000E+00   0.000E+00         -           -           -  
   296          11    -15.0111      8.0000    -17.0000   8.000E-01   1.750E-02   0.000E+00   0.000E+00           T           F   0.000E+00   6.300E-01   0.000E+00   0.000E+00   0.000E+00   0.000E+00   0.000E+00         -           -           -  
   297          11    -15.8771      7.5000    -17.0000   8.000E-01   1.750E-02   0.000E+00   0.000E+00           T           F   0.000E+00   6.300E-01   0.000E+00   0.000E+00   0.000E+00   0.000E+00   0.000E+00         -           -           -  
   298          11    -16.7431      7.0000    -17.0000   8.000E-01   1.750E-02   0.000E+00   0.000E+00           T           F   0.000E+00   6.300E-01   0.000E+00   0.000E+00   0.000E+00   0.000E+00   0.000E+00         -           -           -  
   299          11    -17.6092      6.5000    -17.0000   8.000E-01   1.750E-02   0.000E+00   0.000E+00           T           F   0.000E+00   6.300E-01   0.000E+00   0.000E+00   0.000E+00   0.000E+00   0.000E+00         -           -           -  
   300          12    -17.6092     -6.5000    -17.0000   8.000E-01   1.750E-02   0.000E+00   0.000E+00           T           F   0.000E+00   6.300E-01   0.000E+00   0.000E+00   0.000E+00   0.000E+00   0.000E+00         -           -           -  
   301          12    -16.7431     -7.0000    -17.0000   8.000E-01   1.750E-02   0.000E+00   0.000E+00           T           F   0.000E+00   6.300E-01   0.000E+00   0.000E+00   0.000E+00   0.000E+00   0.000E+00         -           -           -  
   302          12    -15.8771     -7.5000    -17.0000   8.000E-01   1.750E-02   0.000E+00   0.000E+00           T           F   0.000E+00   6.300E-01   0.000E+00   0.000E+00   0.000E+00   0.000E+00   0.000E+00         -           -           -  
   303          12    -15.0111     -8.0000    -17.0000   8.000E-01   1.750E-02   0.000E+00   0.000E+00           T           F   0.000E+00   6.300E-01   0.000E+00   0.000E+00   0.000E+00   0.000E+00   0.000E+00         -           -           -  
   304          12    -14.1451     -8.5000    -17.0000   8.000E-01   1.750E-02   0.000E+00   0.000E+00           T           F   0.000E+00   6.300E-01   0.000E+00   0.000E+00   0.000E+00   0.000E+00   0.000E+00         -           -           -  
   305          12    -13.2790     -9.0000    -17.0000   8.000E-01   1.750E-02   0.000E+00   0.000E+00           T           F   0.000E+00   6.300E-01   0.000E+00   0.000E+00   0.000E+00   0.000E+00   0.000E+00         -           -           -  
   306          12    -12.4130     -9.5000    -17.0000   8.000E-01   1.750E-02   0.000E+00   0.000E+00           T           F   0.000E+00   6.300E-01   0.000E+00   0.000E+00   0.000E+00   0.000E+00   0.000E+00         -           -           -  
   307          12    -11.5470    -10.0000    -17.0000   8.000E-01   1.750E-02   0.000E+00   0.000E+00           T           F   0.000E+00   6.300E-01   0.000E+00   0.000E+00   0.000E+00   0.000E+00   0.000E+00         -           -           -  
   308          12    -10.6810    -10.5000    -17.0000   8.000E-01   1.750E-02   0.000E+00   0.000E+00           T           F   0.000E+00   6.300E-01   0.000E+00   0.000E+00   0.000E+00   0.000E+00   0.000E+00         -           -           -  
   309          12     -9.8150    -11.0000    -17.0000   8.000E-01   1.750E-02   0.000E+00   0.000E+00           T           F   0.000E+00   6.300E-01   0.000E+00   0.000E+00   0.000E+00   0.000E+00   0.000E+00         -           -           -  
[...]
       4772   0.59650E+02       3.97483E+03       0.00000E+00       2.04075E+01       0.00000E+00      -4.30421E+04       0.00000E+00       0.00000E+00       3.98005E+03       0.00000E+00       4.29995E+04       0.00000E+00      -3.08492E+01       1.29263E+01       0.00000E+00      -2.04987E+03       0.00000E+00      -6.70062E+01       0.00000E+00       0.00000E+00       4.32017E+04       0.00000E+00       3.34015E+05       0.00000E+00       3.12782E+01      -4.26138E+04       0.00000E+00       5.36142E+01       0.00000E+00       3.32622E+05       0.00000E+00       0.00000E+00      -4.41418E+02       0.00000E+00      -4.14032E+02       0.00000E+00       8.45524E+05
       4773   0.59663E+02       3.75846E+03       0.00000E+00       1.70489E+01       0.00000E+00      -4.34507E+04       0.00000E+00       0.00000E+00       3.76044E+03       0.00000E+00       4.34315E+04       0.00000E+00      -3.77165E+01       1.32645E+01       0.00000E+00      -2.07622E+03       0.00000E+00      -6.80769E+01       0.00000E+00       0.00000E+00       4.35681E+04       0.00000E+00       3.35406E+05       0.00000E+00       1.57351E+01      -4.29988E+04       0.00000E+00       3.77533E+01       0.00000E+00       3.32825E+05       0.00000E+00       0.00000E+00      -4.37529E+02       0.00000E+00      -3.62730E+02       0.00000E+00       8.05561E+05
       4774   0.59675E+02       3.53024E+03       0.00000E+00       1.36117E+01       0.00000E+00      -4.38468E+04       0.00000E+00       0.00000E+00       3.53365E+03       0.00000E+00       4.38204E+04       0.00000E+00      -4.45570E+01       1.35905E+01       0.00000E+00      -2.10211E+03       0.00000E+00      -6.91240E+01       0.00000E+00       0.00000E+00       4.39458E+04       0.00000E+00       3.36377E+05       0.00000E+00       2.65938E-01      -4.33365E+04       0.00000E+00       2.18999E+01       0.00000E+00       3.34930E+05       0.00000E+00       0.00000E+00      -4.33392E+02       0.00000E+00      -3.11401E+02       0.00000E+00       7.53446E+05
       4775   0.59688E+02       3.31368E+03       0.00000E+00       1.01057E+01       0.00000E+00      -4.42307E+04       0.00000E+00       0.00000E+00       3.31382E+03       0.00000E+00       4.42306E+04       0.00000E+00      -5.13483E+01       1.39049E+01       0.00000E+00      -2.12686E+03       0.00000E+00      -7.01477E+01       0.00000E+00       0.00000E+00       4.42888E+04       0.00000E+00       3.37672E+05       0.00000E+00      -1.51219E+01      -4.37004E+04       0.00000E+00       6.11255E+00       0.00000E+00       3.35031E+05       0.00000E+00       0.00000E+00      -4.29069E+02       0.00000E+00      -2.60214E+02       0.00000E+00       7.10889E+05
       4776   0.59700E+02       3.08672E+03       0.00000E+00       6.55663E+00       0.00000E+00      -4.46029E+04       0.00000E+00       0.00000E+00       3.08853E+03       0.00000E+00       4.45961E+04       0.00000E+00      -5.80715E+01       1.42070E+01       0.00000E+00      -2.15113E+03       0.00000E+00      -7.11449E+01       0.00000E+00       0.00000E+00       4.46430E+04       0.00000E+00       3.38548E+05       0.00000E+00      -3.03402E+01      -4.40166E+04       0.00000E+00      -9.56220E+00       0.00000E+00       3.37005E+05       0.00000E+00       0.00000E+00      -4.24565E+02       0.00000E+00      -2.09351E+02       0.00000E+00       6.56562E+05
       4777   0.59713E+02       2.87325E+03       0.00000E+00       2.97464E+00       0.00000E+00      -4.49619E+04       0.00000E+00       0.00000E+00       2.87162E+03       0.00000E+00       4.49808E+04       0.00000E+00      -6.47043E+01       1.44975E+01       0.00000E+00      -2.17420E+03       0.00000E+00      -7.21159E+01       0.00000E+00       0.00000E+00       4.49621E+04       0.00000E+00       3.39722E+05       0.00000E+00      -4.53825E+01      -4.43555E+04       0.00000E+00      -2.50666E+01       0.00000E+00       3.37021E+05       0.00000E+00       0.00000E+00      -4.19943E+02       0.00000E+00      -1.58978E+02       0.00000E+00       6.12650E+05
       4778   0.59725E+02       2.65099E+03       0.00000E+00      -6.14251E-01       0.00000E+00      -4.53077E+04       0.00000E+00       0.00000E+00       2.65088E+03       0.00000E+00       4.53188E+04       0.00000E+00      -7.12282E+01       1.47754E+01       0.00000E+00      -2.19677E+03       0.00000E+00      -7.30576E+01       0.00000E+00       0.00000E+00       4.52907E+04       0.00000E+00       3.40487E+05       0.00000E+00      -6.01615E+01      -4.46473E+04       0.00000E+00      -4.03547E+01       0.00000E+00       3.38917E+05       0.00000E+00       0.00000E+00      -4.15208E+02       0.00000E+00      -1.09276E+02       0.00000E+00       5.57493E+05
       4779   0.59738E+02       2.44344E+03       0.00000E+00      -4.19991E+00       0.00000E+00      -4.56418E+04       0.00000E+00       0.00000E+00       2.44011E+03       0.00000E+00       4.56794E+04       0.00000E+00      -7.76214E+01       1.50417E+01       0.00000E+00      -2.21811E+03       0.00000E+00      -7.39703E+01       0.00000E+00       0.00000E+00       4.55861E+04       0.00000E+00       3.41561E+05       0.00000E+00      -7.46714E+01      -4.49628E+04       0.00000E+00      -5.53699E+01       0.00000E+00       3.38807E+05       0.00000E+00       0.00000E+00      -4.10421E+02       0.00000E+00      -6.04071E+01       0.00000E+00       5.12974E+05
       4780   0.59750E+02       2.22869E+03       0.00000E+00      -7.75649E+00       0.00000E+00      -4.59614E+04       0.00000E+00       0.00000E+00       2.22709E+03       0.00000E+00       4.59921E+04       0.00000E+00      -8.38660E+01       1.52952E+01       0.00000E+00      -2.23891E+03       0.00000E+00      -7.48509E+01       0.00000E+00       0.00000E+00       4.58914E+04       0.00000E+00       3.42221E+05       0.00000E+00      -8.88267E+01      -4.52301E+04       0.00000E+00      -7.00679E+01       0.00000E+00       3.40596E+05       0.00000E+00       0.00000E+00      -4.05587E+02       0.00000E+00      -1.25472E+01       0.00000E+00       4.57987E+05
       4781   0.59763E+02       2.03035E+03       0.00000E+00      -1.12742E+01       0.00000E+00      -4.62680E+04       0.00000E+00       0.00000E+00       2.02542E+03       0.00000E+00       4.63233E+04       0.00000E+00      -8.99412E+01       1.55370E+01       0.00000E+00      -2.25845E+03       0.00000E+00      -7.56995E+01       0.00000E+00       0.00000E+00       4.61592E+04       0.00000E+00       3.43202E+05       0.00000E+00      -1.02624E+02      -4.55206E+04       0.00000E+00      -8.43940E+01       0.00000E+00       3.40404E+05       0.00000E+00       0.00000E+00      -4.00768E+02       0.00000E+00       3.41482E+01       0.00000E+00       4.14066E+05
       4782   0.59775E+02       1.82613E+03       0.00000E+00      -1.47276E+01       0.00000E+00      -4.65579E+04       0.00000E+00       0.00000E+00       1.82293E+03       0.00000E+00       4.66057E+04       0.00000E+00      -9.58297E+01       1.57660E+01       0.00000E+00      -2.27741E+03       0.00000E+00      -7.65134E+01       0.00000E+00       0.00000E+00       4.64367E+04       0.00000E+00       3.43764E+05       0.00000E+00      -1.15979E+02      -4.57626E+04       0.00000E+00      -9.83061E+01       0.00000E+00       3.42084E+05       0.00000E+00       0.00000E+00      -3.95966E+02       0.00000E+00       7.95110E+01       0.00000E+00       3.60120E+05
       4783   0.59788E+02       1.63975E+03       0.00000E+00      -1.81077E+01       0.00000E+00      -4.68384E+04       0.00000E+00       0.00000E+00       1.63336E+03       0.00000E+00       4.69106E+04       0.00000E+00      -1.01512E+02       1.59832E+01       0.00000E+00      -2.29510E+03       0.00000E+00      -7.72926E+01       0.00000E+00       0.00000E+00       4.66798E+04       0.00000E+00       3.44652E+05       0.00000E+00      -1.28891E+02      -4.60274E+04       0.00000E+00      -1.11752E+02       0.00000E+00       3.41810E+05       0.00000E+00       0.00000E+00      -3.91241E+02       0.00000E+00       1.23393E+02       0.00000E+00       3.18079E+05
       4784   0.59800E+02       1.44896E+03       0.00000E+00      -2.13897E+01       0.00000E+00      -4.71014E+04       0.00000E+00       0.00000E+00       1.44427E+03       0.00000E+00       4.71646E+04       0.00000E+00      -1.06972E+02       1.61876E+01       0.00000E+00      -2.31220E+03       0.00000E+00      -7.80343E+01       0.00000E+00       0.00000E+00       4.69308E+04       0.00000E+00       3.45115E+05       0.00000E+00      -1.41280E+02      -4.62438E+04       0.00000E+00      -1.24693E+02       0.00000E+00       3.43409E+05       0.00000E+00       0.00000E+00      -3.86595E+02       0.00000E+00       1.65637E+02       0.00000E+00       2.66295E+05
       4785   0.59812E+02       1.27731E+03       0.00000E+00      -2.45656E+01       0.00000E+00      -4.73510E+04       0.00000E+00       0.00000E+00       1.26955E+03       0.00000E+00       4.74386E+04       0.00000E+00      -1.12191E+02       1.63801E+01       0.00000E+00      -2.32797E+03       0.00000E+00      -7.87389E+01       0.00000E+00       0.00000E+00       4.71464E+04       0.00000E+00       3.45920E+05       0.00000E+00      -1.53145E+02      -4.64814E+04       0.00000E+00      -1.37079E+02       0.00000E+00       3.43036E+05       0.00000E+00       0.00000E+00      -3.82085E+02       0.00000E+00       2.06105E+02       0.00000E+00       2.27005E+05
       4786   0.59825E+02       1.10251E+03       0.00000E+00      -2.76118E+01       0.00000E+00      -4.75827E+04       0.00000E+00       0.00000E+00       1.09653E+03       0.00000E+00       4.76629E+04       0.00000E+00      -1.17154E+02       1.65597E+01       0.00000E+00      -2.34313E+03       0.00000E+00      -7.94035E+01       0.00000E+00       0.00000E+00       4.73702E+04       0.00000E+00       3.46317E+05       0.00000E+00      -1.64411E+02      -4.66697E+04       0.00000E+00      -1.48875E+02       0.00000E+00       3.44556E+05       0.00000E+00       0.00000E+00      -3.77711E+02       0.00000E+00       2.44651E+02       0.00000E+00       1.78476E+05
       4787   0.59838E+02       9.48065E+02       0.00000E+00      -3.05213E+01       0.00000E+00      -4.78035E+04       0.00000E+00       0.00000E+00       9.39097E+02       0.00000E+00       4.79054E+04       0.00000E+00      -1.21846E+02       1.67275E+01       0.00000E+00      -2.35695E+03       0.00000E+00      -8.00285E+01       0.00000E+00       0.00000E+00       4.75574E+04       0.00000E+00       3.47011E+05       0.00000E+00      -1.75081E+02      -4.68816E+04       0.00000E+00      -1.60036E+02       0.00000E+00       3.44087E+05       0.00000E+00       0.00000E+00      -3.73529E+02       0.00000E+00       2.81150E+02       0.00000E+00       1.42771E+05
       4788   0.59850E+02       7.91467E+02       0.00000E+00      -3.32722E+01       0.00000E+00      -4.80060E+04       0.00000E+00       0.00000E+00       7.84533E+02       0.00000E+00       4.80981E+04       0.00000E+00      -1.26251E+02       1.68824E+01       0.00000E+00      -2.37013E+03       0.00000E+00      -8.06112E+01       0.00000E+00       0.00000E+00       4.77525E+04       0.00000E+00       3.47300E+05       0.00000E+00      -1.85082E+02      -4.70443E+04       0.00000E+00      -1.70531E+02       0.00000E+00       3.45525E+05       0.00000E+00       0.00000E+00      -3.69534E+02       0.00000E+00       3.15469E+02       0.00000E+00       9.83040E+04
       4789   0.59863E+02       6.56717E+02       0.00000E+00      -3.58587E+01       0.00000E+00      -4.81946E+04       0.00000E+00       0.00000E+00       6.46637E+02       0.00000E+00       4.83090E+04       0.00000E+00      -1.30356E+02       1.70253E+01       0.00000E+00      -2.38196E+03       0.00000E+00      -8.11522E+01       0.00000E+00       0.00000E+00       4.79121E+04       0.00000E+00       3.47932E+05       0.00000E+00      -1.94424E+02      -4.72268E+04       0.00000E+00      -1.80318E+02       0.00000E+00       3.44974E+05       0.00000E+00       0.00000E+00      -3.65780E+02       0.00000E+00       3.47499E+02       0.00000E+00       6.70765E+04
       4790   0.59875E+02       5.20747E+02       0.00000E+00      -3.82606E+01       0.00000E+00      -4.83652E+04       0.00000E+00       0.00000E+00       5.12747E+02       0.00000E+00       4.84693E+04       0.00000E+00      -1.34149E+02       1.71554E+01       0.00000E+00      -2.39311E+03       0.00000E+00      -8.16488E+01       0.00000E+00       0.00000E+00       4.80785E+04       0.00000E+00       3.48146E+05       0.00000E+00      -2.03035E+02      -4.73609E+04       0.00000E+00      -1.89370E+02       0.00000E+00       3.46330E+05       0.00000E+00       0.00000E+00      -3.62261E+02       0.00000E+00       3.77121E+02       0.00000E+00       2.75251E+04
       4791   0.59888E+02       4.07322E+02       0.00000E+00      -4.04741E+01       0.00000E+00      -4.85227E+04       0.00000E+00       0.00000E+00       3.96347E+02       0.00000E+00       4.86480E+04       0.00000E+00      -1.37617E+02       1.72735E+01       0.00000E+00      -2.40292E+03       0.00000E+00      -8.21018E+01       0.00000E+00       0.00000E+00       4.82092E+04       0.00000E+00       3.48688E+05       0.00000E+00      -2.10930E+02      -4.75161E+04       0.00000E+00      -1.97651E+02       0.00000E+00       3.45703E+05       0.00000E+00       0.00000E+00      -3.59026E+02       0.00000E+00       4.04241E+02       0.00000E+00       1.51403E+03
       4792   0.59900E+02       2.93653E+02       0.00000E+00      -4.24804E+01       0.00000E+00      -4.86613E+04       0.00000E+00       0.00000E+00       2.84800E+02       0.00000E+00       4.87765E+04       0.00000E+00      -1.40750E+02       1.73787E+01       0.00000E+00      -2.41201E+03       0.00000E+00      -8.25087E+01       0.00000E+00       0.00000E+00       4.83473E+04       0.00000E+00       3.48815E+05       0.00000E+00      -2.18043E+02      -4.76228E+04       0.00000E+00      -2.05140E+02       0.00000E+00       3.46958E+05       0.00000E+00       0.00000E+00      -3.56064E+02       0.00000E+00       4.28759E+02       0.00000E+00      -3.23311E+04
       4793   0.59913E+02       2.03423E+02       0.00000E+00      -4.42779E+01       0.00000E+00      -4.87867E+04       0.00000E+00       0.00000E+00       1.91722E+02       0.00000E+00       4.89209E+04       0.00000E+00      -1.43538E+02       1.74720E+01       0.00000E+00      -2.41976E+03       0.00000E+00      -8.28704E+01       0.00000E+00       0.00000E+00       4.84480E+04       0.00000E+00       3.49287E+05       0.00000E+00      -2.24392E+02      -4.77486E+04       0.00000E+00      -2.11805E+02       0.00000E+00       3.46279E+05       0.00000E+00       0.00000E+00      -3.53424E+02       0.00000E+00       4.50598E+02       0.00000E+00      -5.25907E+04
       4794   0.59925E+02       1.13493E+02       0.00000E+00      -4.58500E+01       0.00000E+00      -4.88934E+04       0.00000E+00       0.00000E+00       1.04213E+02       0.00000E+00       4.90138E+04       0.00000E+00      -1.45972E+02       1.75525E+01       0.00000E+00      -2.42680E+03       0.00000E+00      -8.31845E+01       0.00000E+00       0.00000E+00       4.85564E+04       0.00000E+00       3.49334E+05       0.00000E+00      -2.29916E+02      -4.78251E+04       0.00000E+00      -2.17630E+02       0.00000E+00       3.47450E+05       0.00000E+00       0.00000E+00      -3.51090E+02       0.00000E+00       4.69676E+02       0.00000E+00      -8.05001E+04
       4795   0.59938E+02       4.79583E+01       0.00000E+00      -4.71969E+01       0.00000E+00      -4.89854E+04       0.00000E+00       0.00000E+00       3.56608E+01       0.00000E+00       4.91265E+04       0.00000E+00      -1.48044E+02       1.76209E+01       0.00000E+00      -2.43244E+03       0.00000E+00      -8.34520E+01       0.00000E+00       0.00000E+00       4.86276E+04       0.00000E+00       3.49730E+05       0.00000E+00      -2.34640E+02      -4.79234E+04       0.00000E+00      -2.22590E+02       0.00000E+00       3.46706E+05       0.00000E+00       0.00000E+00      -3.49106E+02       0.00000E+00       4.85935E+02       0.00000E+00      -9.41643E+04
       4796   0.59950E+02      -1.70667E+01       0.00000E+00      -4.83043E+01       0.00000E+00      -4.90581E+04       0.00000E+00       0.00000E+00      -2.68800E+01       0.00000E+00       4.91861E+04       0.00000E+00      -1.49749E+02       1.76765E+01       0.00000E+00      -2.43739E+03       0.00000E+00      -8.36709E+01       0.00000E+00       0.00000E+00       4.87049E+04       0.00000E+00       3.49716E+05       0.00000E+00      -2.38506E+02      -4.79701E+04       0.00000E+00      -2.26673E+02       0.00000E+00       3.47860E+05       0.00000E+00       0.00000E+00      -3.47453E+02       0.00000E+00       4.99311E+02       0.00000E+00      -1.15343E+05
       4797   0.59963E+02      -5.69475E+01       0.00000E+00      -4.91746E+01       0.00000E+00      -4.91184E+04       0.00000E+00       0.00000E+00      -6.96125E+01       0.00000E+00       4.92640E+04       0.00000E+00      -1.51080E+02       1.77202E+01       0.00000E+00      -2.44091E+03       0.00000E+00      -8.38423E+01       0.00000E+00       0.00000E+00       4.87475E+04       0.00000E+00       3.50025E+05       0.00000E+00      -2.41544E+02      -4.80403E+04       0.00000E+00      -2.29861E+02       0.00000E+00       3.46990E+05       0.00000E+00       0.00000E+00      -3.46171E+02       0.00000E+00       5.09765E+02       0.00000E+00      -1.22334E+05
       4798   0.59975E+02      -9.58933E+01       0.00000E+00      -4.97960E+01       0.00000E+00      -4.91580E+04       0.00000E+00       0.00000E+00      -1.06133E+02       0.00000E+00       4.92894E+04       0.00000E+00      -1.52034E+02       1.77510E+01       0.00000E+00      -2.44373E+03       0.00000E+00      -8.39642E+01       0.00000E+00       0.00000E+00       4.87953E+04       0.00000E+00       3.49935E+05       0.00000E+00      -2.43703E+02      -4.80589E+04       0.00000E+00      -2.32148E+02       0.00000E+00       3.48051E+05       0.00000E+00       0.00000E+00      -3.45236E+02       0.00000E+00       5.17255E+02       0.00000E+00      -1.36533E+05
       4799   0.59988E+02      -1.09752E+02       0.00000E+00      -5.01731E+01       0.00000E+00      -4.91850E+04       0.00000E+00       0.00000E+00      -1.22625E+02       0.00000E+00       4.93329E+04       0.00000E+00      -1.52608E+02       1.77698E+01       0.00000E+00      -2.44515E+03       0.00000E+00      -8.40382E+01       0.00000E+00       0.00000E+00       4.88076E+04       0.00000E+00       3.50172E+05       0.00000E+00      -2.45018E+02      -4.80988E+04       0.00000E+00      -2.33521E+02       0.00000E+00       3.47130E+05       0.00000E+00       0.00000E+00      -3.44686E+02       0.00000E+00       5.21763E+02       0.00000E+00      -1.36578E+05
       4800   0.60000E+02      -1.22240E+02       0.00000E+00      -5.02964E+01       0.00000E+00      -4.91921E+04       0.00000E+00       0.00000E+00      -1.32480E+02       0.00000E+00       4.93227E+04       0.00000E+00      -1.52799E+02       1.77758E+01       0.00000E+00      -2.44587E+03       0.00000E+00      -8.40623E+01       0.00000E+00       0.00000E+00       4.88260E+04       0.00000E+00       3.50003E+05       0.00000E+00      -2.45444E+02      -4.80887E+04       0.00000E+00      -2.33981E+02       0.00000E+00       3.48119E+05       0.00000E+00       0.00000E+00      -3.44492E+02       0.00000E+00       5.23265E+02       0.00000E+00      -1.43742E+05

This summary file was closed on 23-Dec-2021 at 12:41:58.

