
 **************************************************************************************************
 OpenFAST

 Copyright (C) 2021 National Renewable Energy Laboratory
 Copyright (C) 2021 Envision Energy USA LTD

 This program is licensed under Apache License Version 2.0 and comes with ABSOLUTELY NO WARRANTY.
 See the "LICENSE" file distributed with this software for details.
 **************************************************************************************************

 OpenFAST-v2.5.0-559-gdf467475-dirty
 Compile Info:
  - Compiler: GCC version 10.2.0
  - Architecture: 64 bit
  - Precision: double
  - Date: Feb  1 2021
  - Time: 10:44:50
 Execution Info:
  - Date: 02/04/2021
  - Time: 09:47:01-0700

 OpenFAST input file heading:
     FAST Certification Test #25: NREL 5.0 MW Baseline Wind Turbine with OC4-DeepCwind semi
     configuration, for use in offshore analysis

 Running ElastoDyn.
 Nodal outputs section of ElastoDyn input file not found or improperly formatted.
 Running ServoDyn.
 Running StrucCtrl.
 Running StrucCtrl.
 Running StrucCtrl.
 Running StrucCtrl.
 Running StrucCtrl.
 Running HydroDyn.
   Setting WaveTMax to 0.0 since WaveMod = 0
  Reading in WAMIT output with root name
  "/Users/aplatt/software-development/GitHub/openfast-5/build-DP-gcc10/reg_tests/glue-codes/openfas
  t/StC_test_OC4Semi/../5MW_Baseline/HydroData/marin_semi".
  Computing radiation impulse response functions and wave diffraction forces.
 Running MoorDyn (v1.01.02F, 8-Apr-2016).
   MD_Init: Opening MoorDyn input file:
   /Users/aplatt/software-development/GitHub/openfast-5/build-DP-gcc10/reg_tests/glue-codes/openfas
   t/StC_test_OC4Semi/NRELOffshrBsline5MW_OC4DeepCwindSemi_MoorDyn.dat
   Creating mooring system.   3 fairleads, 3 anchors, 0 connects.
    Finalizing ICs using dynamic relaxation.

   t=2  FairTen 1: 1.08301E+06, 0, 0                                                                 t=4  FairTen 1: 1.05288E+06, 1.08301E+06, 0                                                       t=6  FairTen 1: 1.06004E+06, 1.05288E+06, 1.08301E+06                                             t=8  FairTen 1: 1.06138E+06, 1.06004E+06, 1.05288E+06                                             t=10  FairTen 1: 1.05614E+06, 1.06138E+06, 1.06004E+06                                            t=12  FairTen 1: 1.06365E+06, 1.05614E+06, 1.06138E+06                                             Fairlead tensions converged to 1% after 12 seconds.
  Time: 0 of 90 seconds.
                                                                                                   Time: 1 of 90 seconds.  Estimated final completion at 09:55:47.                                                                                                                                     Time: 2 of 90 seconds.  Estimated final completion at 09:56:30.                                                                                                                                     Time: 3 of 90 seconds.  Estimated final completion at 09:56:24.                                  
 FAST_Solution:FAST_AdvanceStates:ED_ABM4:ED_CalcContStateDeriv:SetCoordSy:Small angle assumption
 violated in SUBROUTINE SmllRotTrans() due to a large blade deflection (ElastoDyn SetCoordSy). The
 solution may be inaccurate. Simulation continuing, but future warnings from SmllRotTrans() will
 be suppressed.
  Additional debugging message from SUBROUTINE SmllRotTrans(): 3.4 s

                                                                                                   Time: 4 of 90 seconds.  Estimated final completion at 09:57:31.                                                                                                                                     Time: 5 of 90 seconds.  Estimated final completion at 09:59:15.                                                                                                                                     Time: 6 of 90 seconds.  Estimated final completion at 10:00:38.                                                                                                                                     Time: 7 of 90 seconds.  Estimated final completion at 10:00:39.                                                                                                                                     Time: 8 of 90 seconds.  Estimated final completion at 10:00:00.                                                                                                                                     Time: 9 of 90 seconds.  Estimated final completion at 09:57:36.                                                                                                                                     Time: 10 of 90 seconds.  Estimated final completion at 09:57:01.                                                                                                                                    Time: 11 of 90 seconds.  Estimated final completion at 09:56:19.                                                                                                                                    Time: 12 of 90 seconds.  Estimated final completion at 09:56:13.                                                                                                                                    Time: 13 of 90 seconds.  Estimated final completion at 09:56:21.                                                                                                                                    Time: 14 of 90 seconds.  Estimated final completion at 09:56:24.                                                                                                                                    Time: 15 of 90 seconds.  Estimated final completion at 09:56:43.                                                                                                                                    Time: 16 of 90 seconds.  Estimated final completion at 09:56:48.                                                                                                                                    Time: 17 of 90 seconds.  Estimated final completion at 09:57:02.                                                                                                                                    Time: 18 of 90 seconds.  Estimated final completion at 09:56:56.                                                                                                                                    Time: 19 of 90 seconds.  Estimated final completion at 09:57:24.                                                                                                                                    Time: 20 of 90 seconds.  Estimated final completion at 10:05:53.                                                                                                                                    Time: 21 of 90 seconds.  Estimated final completion at 10:08:17.                                                                                                                                    Time: 22 of 90 seconds.  Estimated final completion at 10:08:56.                                                                                                                                    Time: 23 of 90 seconds.  Estimated final completion at 10:08:35.                                                                                                                                    Time: 24 of 90 seconds.  Estimated final completion at 10:06:28.                                                                                                                                    Time: 25 of 90 seconds.  Estimated final completion at 10:02:53.                                                                                                                                    Time: 26 of 90 seconds.  Estimated final completion at 09:59:06.                                                                                                                                    Time: 27 of 90 seconds.  Estimated final completion at 09:59:10.                                                                                                                                    Time: 28 of 90 seconds.  Estimated final completion at 09:59:24.                                                                                                                                    Time: 29 of 90 seconds.  Estimated final completion at 09:58:32.                                                                                                                                    Time: 30 of 90 seconds.  Estimated final completion at 09:58:20.                                                                                                                                    Time: 31 of 90 seconds.  Estimated final completion at 09:57:59.                                                                                                                                    Time: 32 of 90 seconds.  Estimated final completion at 09:57:42.                                                                                                                                    Time: 33 of 90 seconds.  Estimated final completion at 09:57:55.                                                                                                                                    Time: 34 of 90 seconds.  Estimated final completion at 09:58:41.                                                                                                                                    Time: 35 of 90 seconds.  Estimated final completion at 09:58:15.                                                                                                                                    Time: 36 of 90 seconds.  Estimated final completion at 09:57:50.                                                                                                                                    Time: 37 of 90 seconds.  Estimated final completion at 09:58:14.                                                                                                                                    Time: 38 of 90 seconds.  Estimated final completion at 09:59:01.                                                                                                                                    Time: 39 of 90 seconds.  Estimated final completion at 09:58:60.                                                                                                                                    Time: 40 of 90 seconds.  Estimated final completion at 09:59:02.                                                                                                                                    Time: 41 of 90 seconds.  Estimated final completion at 09:59:05.                                                                                                                                    Time: 42 of 90 seconds.  Estimated final completion at 09:59:21.                                                                                                                                    Time: 43 of 90 seconds.  Estimated final completion at 09:58:56.                                                                                                                                    Time: 44 of 90 seconds.  Estimated final completion at 09:58:42.                                                                                                                                    Time: 45 of 90 seconds.  Estimated final completion at 09:58:15.                                                                                                                                    Time: 46 of 90 seconds.  Estimated final completion at 09:57:56.                                                                                                                                    Time: 47 of 90 seconds.  Estimated final completion at 09:58:01.                                                                                                                                    Time: 48 of 90 seconds.  Estimated final completion at 09:58:02.                                                                                                                                    Time: 49 of 90 seconds.  Estimated final completion at 09:57:32.                                                                                                                                    Time: 50 of 90 seconds.  Estimated final completion at 09:57:31.                                                                                                                                    Time: 51 of 90 seconds.  Estimated final completion at 09:57:37.                                                                                                                                    Time: 52 of 90 seconds.  Estimated final completion at 09:57:50.                                                                                                                                    Time: 53 of 90 seconds.  Estimated final completion at 09:58:01.                                                                                                                                    Time: 54 of 90 seconds.  Estimated final completion at 09:57:60.                                                                                                                                    Time: 55 of 90 seconds.  Estimated final completion at 09:57:58.                                                                                                                                    Time: 56 of 90 seconds.  Estimated final completion at 09:58:08.                                                                                                                                    Time: 57 of 90 seconds.  Estimated final completion at 09:58:26.                                                                                                                                    Time: 58 of 90 seconds.  Estimated final completion at 09:58:16.                                                                                                                                    Time: 59 of 90 seconds.  Estimated final completion at 09:58:22.                                                                                                                                    Time: 60 of 90 seconds.  Estimated final completion at 09:58:03.                                                                                                                                    Time: 61 of 90 seconds.  Estimated final completion at 09:58:05.                                                                                                                                    Time: 62 of 90 seconds.  Estimated final completion at 09:57:52.                                                                                                                                    Time: 63 of 90 seconds.  Estimated final completion at 09:57:59.                                                                                                                                    Time: 64 of 90 seconds.  Estimated final completion at 09:57:39.                                                                                                                                    Time: 65 of 90 seconds.  Estimated final completion at 09:57:32.                                                                                                                                    Time: 66 of 90 seconds.  Estimated final completion at 09:57:27.                                                                                                                                    Time: 67 of 90 seconds.  Estimated final completion at 09:57:29.                                                                                                                                    Time: 68 of 90 seconds.  Estimated final completion at 09:57:25.                                                                                                                                    Time: 69 of 90 seconds.  Estimated final completion at 09:57:18.                                                                                                                                    Time: 70 of 90 seconds.  Estimated final completion at 09:57:11.                                                                                                                                    Time: 71 of 90 seconds.  Estimated final completion at 09:57:07.                                                                                                                                    Time: 72 of 90 seconds.  Estimated final completion at 09:57:05.                                                                                                                                    Time: 73 of 90 seconds.  Estimated final completion at 09:57:02.                                                                                                                                    Time: 74 of 90 seconds.  Estimated final completion at 09:57:00.                                                                                                                                    Time: 75 of 90 seconds.  Estimated final completion at 09:56:59.                                                                                                                                    Time: 76 of 90 seconds.  Estimated final completion at 09:56:57.                                                                                                                                    Time: 77 of 90 seconds.  Estimated final completion at 09:56:57.                                                                                                                                    Time: 78 of 90 seconds.  Estimated final completion at 09:56:56.                                                                                                                                    Time: 79 of 90 seconds.  Estimated final completion at 09:56:56.                                                                                                                                    Time: 80 of 90 seconds.  Estimated final completion at 09:56:56.                                                                                                                                    Time: 81 of 90 seconds.  Estimated final completion at 09:56:56.                                                                                                                                    Time: 82 of 90 seconds.  Estimated final completion at 09:56:56.                                                                                                                                    Time: 83 of 90 seconds.  Estimated final completion at 09:56:56.                                                                                                                                    Time: 84 of 90 seconds.  Estimated final completion at 09:56:56.                                                                                                                                    Time: 85 of 90 seconds.  Estimated final completion at 09:56:56.                                                                                                                                    Time: 86 of 90 seconds.  Estimated final completion at 09:56:56.                                                                                                                                    Time: 87 of 90 seconds.  Estimated final completion at 09:56:56.                                                                                                                                    Time: 88 of 90 seconds.  Estimated final completion at 09:56:56.                                                                                                                                    Time: 89 of 90 seconds.  Estimated final completion at 09:56:56.                                                                                                                                    Time: 90 of 90 seconds.  Estimated final completion at 09:56:56.                                                                                                                                   
  Total Real Time:       9.895 minutes
  Total CPU Time:        9.0769 minutes
  Simulation CPU Time:   8.6029 minutes
  Simulated Time:        1.5 minutes
  Time Ratio (Sim/CPU):  0.17436

  OpenFAST terminated normally.

