
**************************************************************************************************
OpenFAST

Copyright (C) 2021 National Renewable Energy Laboratory
Copyright (C) 2021 Envision Energy USA LTD

This program is licensed under Apache License Version 2.0 and comes with ABSOLUTELY NO WARRANTY.
See the "LICENSE" file distributed with this software for details.
**************************************************************************************************

OpenFAST-v2.4.0-137-gb5d9a13c
Compile Info:
 - Compiler: Intel(R) Fortran Intel(R) 64 Compiler Classic for applications running on Intel(R)
 64, Version 2021.1 Build 20201112_000000
 - Architecture: 64 bit
 - Precision: double
 - Date: Jan 11 2021
 - Time: 20:21:29
Execution Info:
 - Date: 01/11/2021
 - Time: 21:07:28-0600

OpenFAST input file heading:
    FAST Certification Test #26: NREL 5.0 MW Baseline Wind Turbine (Onshore)

Running ElastoDyn.
Nodal outputs section of ElastoDyn input file not found or improperly formatted.
Running BeamDyn.
Nodal outputs section of BeamDyn input file not found or improperly formatted.
Running BeamDyn.
Nodal outputs section of BeamDyn input file not found or improperly formatted.
Running BeamDyn.
Nodal outputs section of BeamDyn input file not found or improperly formatted.
Running ServoDyn.

FAST_InitializeAll:FAST_Init:ValidateInputData:LinOutJac can be used only when
LinInputs=LinOutputs=2.

 Time: 0 of 5 seconds.                                                                                                   Performing linearization 1 at simulation time 0 s. (RotSpeed=12.1 rpm, BldPitch1=0 deg)
                                                                                                   Time: 1 of 5 seconds.  Estimated final completion at 21:08:04.                                                                                                   Time: 2 of 5 seconds.  Estimated final completion at 21:07:55.                                                                                                   Time: 3 of 5 seconds.  Estimated final completion at 21:07:55.                                                                                                   Time: 4 of 5 seconds.  Estimated final completion at 21:07:56.                                                                                                  

 Total Real Time:       28.383 seconds
 Total CPU Time:        28.359 seconds
 Simulation CPU Time:   28.031 seconds
 Simulated Time:        5.001 seconds
 Time Ratio (Sim/CPU):  0.17841

 OpenFAST terminated normally.

