
 **************************************************************************************************
 OpenFAST

 Copyright (C) 2021 National Renewable Energy Laboratory
 Copyright (C) 2021 Envision Energy USA LTD

 This program is licensed under Apache License Version 2.0 and comes with ABSOLUTELY NO WARRANTY.
 See the "LICENSE" file distributed with this software for details.
 **************************************************************************************************

 OpenFAST-v2.5.0-10-gb4fd3acc
 Compile Info:
  - Compiler: GCC version 10.2.0
  - Architecture: 64 bit
  - Precision: double
  - Date: Jan 14 2021
  - Time: 17:19:34
 Execution Info:
  - Date: 01/14/2021
  - Time: 17:38:30-0600

 OpenFAST input file heading:
     FAST Certification Test #09: UAE Phase VI (downwind) with many DOFs with yaw ramp and a
     steady wind.

 Running ElastoDyn.
 Nodal outputs section of ElastoDyn input file not found or improperly formatted.
 Running AeroDyn14.
 Running InflowWind.
 Running ServoDyn.

 FAST_InitializeAll: IfW_Init:IfW_UniformWind_Init: Could not read upflow column in uniform wind
 files. Assuming upflow is 0.

  Time: 0 of 40 seconds.
                                                                                                   Time: 2 of 40 seconds.  Estimated final completion at 17:39:39.                                                                                                                                     Time: 4 of 40 seconds.  Estimated final completion at 17:39:40.                                                                                                                                     Time: 6 of 40 seconds.  Estimated final completion at 17:39:40.                                                                                                                                     Time: 8 of 40 seconds.  Estimated final completion at 17:39:39.                                                                                                                                     Time: 10 of 40 seconds.  Estimated final completion at 17:39:39.                                                                                                                                    Time: 12 of 40 seconds.  Estimated final completion at 17:39:47.                                                                                                                                    Time: 14 of 40 seconds.  Estimated final completion at 17:39:47.                                                                                                                                    Time: 16 of 40 seconds.  Estimated final completion at 17:39:49.                                                                                                                                    Time: 18 of 40 seconds.  Estimated final completion at 17:39:47.                                                                                                                                    Time: 20 of 40 seconds.  Estimated final completion at 17:39:48.                                                                                                                                    Time: 22 of 40 seconds.  Estimated final completion at 17:39:47.                                                                                                                                    Time: 24 of 40 seconds.  Estimated final completion at 17:39:48.                                                                                                                                    Time: 26 of 40 seconds.  Estimated final completion at 17:39:48.                                                                                                                                    Time: 28 of 40 seconds.  Estimated final completion at 17:39:47.                                                                                                                                    Time: 30 of 40 seconds.  Estimated final completion at 17:39:47.                                                                                                                                    Time: 32 of 40 seconds.  Estimated final completion at 17:39:47.                                                                                                                                    Time: 34 of 40 seconds.  Estimated final completion at 17:39:47.                                                                                                                                    Time: 36 of 40 seconds.  Estimated final completion at 17:39:48.                                                                                                                                    Time: 38 of 40 seconds.  Estimated final completion at 17:39:47.                                                                                                                                   
  Total Real Time:       1.2757 minutes
  Total CPU Time:        1.2693 minutes
  Simulation CPU Time:   1.2685 minutes
  Simulated Time:        0.6667 minutes
  Time Ratio (Sim/CPU):  0.52559

  OpenFAST terminated normally.

