
 **************************************************************************************************
 OpenFAST

 Copyright (C) 2021 National Renewable Energy Laboratory
 Copyright (C) 2021 Envision Energy USA LTD

 This program is licensed under Apache License Version 2.0 and comes with ABSOLUTELY NO WARRANTY.
 See the "LICENSE" file distributed with this software for details.
 **************************************************************************************************

 OpenFAST-v2.4.0-138-g9a6c1967
 Compile Info:
  - Compiler: Intel(R) Fortran Intel(R) 64 Compiler Classic for applications running on Intel(R)
  64, Version 2021.1.2 Build 20201208_000000
  - Architecture: 64 bit
  - Precision: double
  - Date: Jan 12 2021
  - Time: 13:31:16
 Execution Info:
  - Date: 01/12/2021
  - Time: 14:07:01-0600

 OpenFAST input file heading:
     FAST Certification Test #16: SWRT 3-bladed upwind turbine with many DOFs, variable speed
     control, free yaw, tail-furl, EDC01 event

 Running ElastoDyn.
 Nodal outputs section of ElastoDyn input file not found or improperly formatted.
 Running AeroDyn14.
 Running InflowWind.
 Running ServoDyn.

 FAST_InitializeAll: IfW_Init:IfW_UniformWind_Init: Could not read upflow column in uniform wind
 files. Assuming upflow is 0.

  Time: 0 of 20 seconds.

  Using variable speed generator option.
    RPM and Torque (Nm) for SWRT rotor mod by CH Aug 9, 2004 with new test data.  See Config B
    Torque vs RPM.xls

+                                                                                                  
+ Time: 1 of 20 seconds.  Estimated final completion at 14:07:48.
+                                                                                                  
+ Time: 2 of 20 seconds.  Estimated final completion at 14:07:48.
+                                                                                                  
+ Time: 3 of 20 seconds.  Estimated final completion at 14:07:48.
+                                                                                                  
+ Time: 4 of 20 seconds.  Estimated final completion at 14:07:47.
+                                                                                                  
+ Time: 5 of 20 seconds.  Estimated final completion at 14:07:50.
+                                                                                                  
+ Time: 6 of 20 seconds.  Estimated final completion at 14:07:48.
+                                                                                                  
+ Time: 7 of 20 seconds.  Estimated final completion at 14:07:49.
+                                                                                                  
+ Time: 8 of 20 seconds.  Estimated final completion at 14:07:47.
+                                                                                                  
+ Time: 9 of 20 seconds.  Estimated final completion at 14:07:47.
+                                                                                                  
+ Time: 10 of 20 seconds.  Estimated final completion at 14:07:48.
+                                                                                                  
+ Time: 11 of 20 seconds.  Estimated final completion at 14:07:47.
+                                                                                                  
+ Time: 12 of 20 seconds.  Estimated final completion at 14:07:47.
+                                                                                                  
+ Time: 13 of 20 seconds.  Estimated final completion at 14:07:49.
+                                                                                                  
+ Time: 14 of 20 seconds.  Estimated final completion at 14:07:47.
+                                                                                                  
+ Time: 15 of 20 seconds.  Estimated final completion at 14:07:48.
+                                                                                                  
+ Time: 16 of 20 seconds.  Estimated final completion at 14:07:48.
+                                                                                                  
+ Time: 17 of 20 seconds.  Estimated final completion at 14:07:48.
+                                                                                                  
+ Time: 18 of 20 seconds.  Estimated final completion at 14:07:48.
+                                                                                                  
+ Time: 19 of 20 seconds.  Estimated final completion at 14:07:48.
+                                                                                                  
+ Time: 20 of 20 seconds.  Estimated final completion at 14:07:48.
+                                                                                                  

  Total Real Time:       46.22 seconds
  Total CPU Time:        46.172 seconds
  Simulation CPU Time:   46.062 seconds
  Simulated Time:        20 seconds
  Time Ratio (Sim/CPU):  0.43419

  OpenFAST terminated normally.

