
 **************************************************************************************************
 OpenFAST

 Copyright (C) 2021 National Renewable Energy Laboratory
 Copyright (C) 2021 Envision Energy USA LTD

 This program is licensed under Apache License Version 2.0 and comes with ABSOLUTELY NO WARRANTY.
 See the "LICENSE" file distributed with this software for details.
 **************************************************************************************************

 OpenFAST-v2.5.0-10-gb4fd3acc
 Compile Info:
  - Compiler: GCC version 10.2.0
  - Architecture: 64 bit
  - Precision: double
  - Date: Jan 14 2021
  - Time: 17:19:34
 Execution Info:
  - Date: 01/14/2021
  - Time: 17:38:19-0600

 OpenFAST input file heading:
     FAST Certification Test #01: AWT-27CR2 with many DOFs with fixed yaw error and steady wind

 Running ElastoDyn.
 Nodal outputs section of ElastoDyn input file not found or improperly formatted.
 Running AeroDyn14.
 Running InflowWind.
 Running ServoDyn.
  Time: 0 of 20 seconds.
                                                                                                   Time: 2 of 20 seconds.  Estimated final completion at 17:38:31.                                                                                                                                     Time: 4 of 20 seconds.  Estimated final completion at 17:38:30.                                                                                                                                     Time: 6 of 20 seconds.  Estimated final completion at 17:38:30.                                                                                                                                     Time: 8 of 20 seconds.  Estimated final completion at 17:38:30.                                                                                                                                     Time: 10 of 20 seconds.  Estimated final completion at 17:38:30.                                                                                                                                    Time: 12 of 20 seconds.  Estimated final completion at 17:38:31.                                                                                                                                    Time: 14 of 20 seconds.  Estimated final completion at 17:38:31.                                                                                                                                    Time: 16 of 20 seconds.  Estimated final completion at 17:38:30.                                                                                                                                    Time: 18 of 20 seconds.  Estimated final completion at 17:38:30.                                                                                                                                    Time: 20 of 20 seconds.  Estimated final completion at 17:38:30.                                                                                                                                   
  Total Real Time:       10.755 seconds
  Total CPU Time:        10.672 seconds
  Simulation CPU Time:   10.625 seconds
  Simulated Time:        20 seconds
  Time Ratio (Sim/CPU):  1.8824

  OpenFAST terminated normally.

