
 **************************************************************************************************
 OpenFAST

 Copyright (C) 2021 National Renewable Energy Laboratory
 Copyright (C) 2021 Envision Energy USA LTD

 This program is licensed under Apache License Version 2.0 and comes with ABSOLUTELY NO WARRANTY.
 See the "LICENSE" file distributed with this software for details.
 **************************************************************************************************

 OpenFAST-v1.0.0-1879-g35ae68f3
 Compile Info:
  - Compiler: GCC version 10.2.0
  - Architecture: 64 bit
  - Precision: double
  - Date: Feb  4 2021
  - Time: 13:19:43
 Execution Info:
  - Date: 02/05/2021
  - Time: 11:14:11-0600

 OpenFAST input file heading:
     FAST Certification Test #25: NREL 5.0 MW Baseline Wind Turbine with OC4-DeepCwind semi
     configuration, for use in offshore analysis

 Running ElastoDyn.
 Nodal outputs section of ElastoDyn input file not found or improperly formatted.
 Running ServoDyn.
 Running StrucCtrl.
 Running StrucCtrl.
 Running StrucCtrl.
 Running StrucCtrl.
 Running StrucCtrl.
 Running HydroDyn.
   Setting WaveTMax to 0.0 since WaveMod = 0
  Reading in WAMIT output with root name "./../5MW_Baseline/HydroData/marin_semi".
  Computing radiation impulse response functions and wave diffraction forces.
 Running MoorDyn (v1.01.02F, 8-Apr-2016).
   MD_Init: Opening MoorDyn input file:  ./NRELOffshrBsline5MW_OC4DeepCwindSemi_MoorDyn.dat
   Creating mooring system.   3 fairleads, 3 anchors, 0 connects.
    Finalizing ICs using dynamic relaxation.

   t=2  FairTen 1: 1.08301E+06, 0, 0                                                                 t=4  FairTen 1: 1.05288E+06, 1.08301E+06, 0                                                       t=6  FairTen 1: 1.06004E+06, 1.05288E+06, 1.08301E+06                                             t=8  FairTen 1: 1.06138E+06, 1.06004E+06, 1.05288E+06                                             t=10  FairTen 1: 1.05614E+06, 1.06138E+06, 1.06004E+06                                            t=12  FairTen 1: 1.06365E+06, 1.05614E+06, 1.06138E+06                                             Fairlead tensions converged to 1% after 12 seconds.
  Time: 0 of 90 seconds.
                                                                                                   Time: 1 of 90 seconds.  Estimated final completion at 11:19:29.                                                                                                                                     Time: 2 of 90 seconds.  Estimated final completion at 11:19:32.                                                                                                                                     Time: 3 of 90 seconds.  Estimated final completion at 11:19:02.                                  
 FAST_Solution:FAST_AdvanceStates:ED_ABM4:ED_CalcContStateDeriv:SetCoordSy:Small angle assumption
 violated in SUBROUTINE SmllRotTrans() due to a large blade deflection (ElastoDyn SetCoordSy). The
 solution may be inaccurate. Simulation continuing, but future warnings from SmllRotTrans() will
 be suppressed.
  Additional debugging message from SUBROUTINE SmllRotTrans(): 3.4 s

                                                                                                   Time: 4 of 90 seconds.  Estimated final completion at 11:19:03.                                                                                                                                     Time: 5 of 90 seconds.  Estimated final completion at 11:19:04.                                                                                                                                     Time: 6 of 90 seconds.  Estimated final completion at 11:19:13.                                                                                                                                     Time: 7 of 90 seconds.  Estimated final completion at 11:19:06.                                                                                                                                     Time: 8 of 90 seconds.  Estimated final completion at 11:19:06.                                                                                                                                     Time: 9 of 90 seconds.  Estimated final completion at 11:19:04.                                                                                                                                     Time: 10 of 90 seconds.  Estimated final completion at 11:19:05.                                                                                                                                    Time: 11 of 90 seconds.  Estimated final completion at 11:19:04.                                                                                                                                    Time: 12 of 90 seconds.  Estimated final completion at 11:19:03.                                                                                                                                    Time: 13 of 90 seconds.  Estimated final completion at 11:19:07.                                                                                                                                    Time: 14 of 90 seconds.  Estimated final completion at 11:19:03.                                                                                                                                    Time: 15 of 90 seconds.  Estimated final completion at 11:19:03.                                                                                                                                    Time: 16 of 90 seconds.  Estimated final completion at 11:19:04.                                                                                                                                    Time: 17 of 90 seconds.  Estimated final completion at 11:19:02.                                                                                                                                    Time: 18 of 90 seconds.  Estimated final completion at 11:19:05.                                                                                                                                    Time: 19 of 90 seconds.  Estimated final completion at 11:19:01.                                                                                                                                    Time: 20 of 90 seconds.  Estimated final completion at 11:18:59.                                                                                                                                    Time: 21 of 90 seconds.  Estimated final completion at 11:18:58.                                                                                                                                    Time: 22 of 90 seconds.  Estimated final completion at 11:18:59.                                                                                                                                    Time: 23 of 90 seconds.  Estimated final completion at 11:18:58.                                                                                                                                    Time: 24 of 90 seconds.  Estimated final completion at 11:18:59.                                                                                                                                    Time: 25 of 90 seconds.  Estimated final completion at 11:18:59.                                                                                                                                    Time: 26 of 90 seconds.  Estimated final completion at 11:19:00.                                                                                                                                    Time: 27 of 90 seconds.  Estimated final completion at 11:18:57.                                                                                                                                    Time: 28 of 90 seconds.  Estimated final completion at 11:18:59.                                                                                                                                    Time: 29 of 90 seconds.  Estimated final completion at 11:18:58.                                                                                                                                    Time: 30 of 90 seconds.  Estimated final completion at 11:19:00.                                                                                                                                    Time: 31 of 90 seconds.  Estimated final completion at 11:19:00.                                                                                                                                    Time: 32 of 90 seconds.  Estimated final completion at 11:18:59.                                                                                                                                    Time: 33 of 90 seconds.  Estimated final completion at 11:18:59.                                                                                                                                    Time: 34 of 90 seconds.  Estimated final completion at 11:18:59.                                                                                                                                    Time: 35 of 90 seconds.  Estimated final completion at 11:18:59.                                                                                                                                    Time: 36 of 90 seconds.  Estimated final completion at 11:18:60.                                                                                                                                    Time: 37 of 90 seconds.  Estimated final completion at 11:19:00.                                                                                                                                    Time: 38 of 90 seconds.  Estimated final completion at 11:18:58.                                                                                                                                    Time: 39 of 90 seconds.  Estimated final completion at 11:18:59.                                                                                                                                    Time: 40 of 90 seconds.  Estimated final completion at 11:18:59.                                                                                                                                    Time: 41 of 90 seconds.  Estimated final completion at 11:18:60.                                                                                                                                    Time: 42 of 90 seconds.  Estimated final completion at 11:18:59.                                                                                                                                    Time: 43 of 90 seconds.  Estimated final completion at 11:18:60.                                                                                                                                    Time: 44 of 90 seconds.  Estimated final completion at 11:18:59.                                                                                                                                    Time: 45 of 90 seconds.  Estimated final completion at 11:18:59.                                                                                                                                    Time: 46 of 90 seconds.  Estimated final completion at 11:18:59.                                                                                                                                    Time: 47 of 90 seconds.  Estimated final completion at 11:18:59.                                                                                                                                    Time: 48 of 90 seconds.  Estimated final completion at 11:18:59.                                                                                                                                    Time: 49 of 90 seconds.  Estimated final completion at 11:19:00.                                                                                                                                    Time: 50 of 90 seconds.  Estimated final completion at 11:18:60.                                                                                                                                    Time: 51 of 90 seconds.  Estimated final completion at 11:18:59.                                                                                                                                    Time: 52 of 90 seconds.  Estimated final completion at 11:18:59.                                                                                                                                    Time: 53 of 90 seconds.  Estimated final completion at 11:18:59.                                                                                                                                    Time: 54 of 90 seconds.  Estimated final completion at 11:18:60.                                                                                                                                    Time: 55 of 90 seconds.  Estimated final completion at 11:18:59.                                                                                                                                    Time: 56 of 90 seconds.  Estimated final completion at 11:19:01.                                                                                                                                    Time: 57 of 90 seconds.  Estimated final completion at 11:19:02.                                                                                                                                    Time: 58 of 90 seconds.  Estimated final completion at 11:19:01.                                                                                                                                    Time: 59 of 90 seconds.  Estimated final completion at 11:19:02.                                                                                                                                    Time: 60 of 90 seconds.  Estimated final completion at 11:19:06.                                                                                                                                    Time: 61 of 90 seconds.  Estimated final completion at 11:19:03.                                                                                                                                    Time: 62 of 90 seconds.  Estimated final completion at 11:19:02.                                                                                                                                    Time: 63 of 90 seconds.  Estimated final completion at 11:19:01.                                                                                                                                    Time: 64 of 90 seconds.  Estimated final completion at 11:19:03.                                                                                                                                    Time: 65 of 90 seconds.  Estimated final completion at 11:19:02.                                                                                                                                    Time: 66 of 90 seconds.  Estimated final completion at 11:19:05.                                                                                                                                    Time: 67 of 90 seconds.  Estimated final completion at 11:19:08.                                                                                                                                    Time: 68 of 90 seconds.  Estimated final completion at 11:19:05.                                                                                                                                    Time: 69 of 90 seconds.  Estimated final completion at 11:19:02.                                                                                                                                    Time: 70 of 90 seconds.  Estimated final completion at 11:18:60.                                                                                                                                    Time: 71 of 90 seconds.  Estimated final completion at 11:19:00.                                                                                                                                    Time: 72 of 90 seconds.  Estimated final completion at 11:19:02.                                                                                                                                    Time: 73 of 90 seconds.  Estimated final completion at 11:19:01.                                                                                                                                    Time: 74 of 90 seconds.  Estimated final completion at 11:19:02.                                                                                                                                    Time: 75 of 90 seconds.  Estimated final completion at 11:19:02.                                                                                                                                    Time: 76 of 90 seconds.  Estimated final completion at 11:19:01.                                                                                                                                    Time: 77 of 90 seconds.  Estimated final completion at 11:19:01.                                                                                                                                    Time: 78 of 90 seconds.  Estimated final completion at 11:19:00.                                                                                                                                    Time: 79 of 90 seconds.  Estimated final completion at 11:19:01.                                                                                                                                    Time: 80 of 90 seconds.  Estimated final completion at 11:19:01.                                                                                                                                    Time: 81 of 90 seconds.  Estimated final completion at 11:19:01.                                                                                                                                    Time: 82 of 90 seconds.  Estimated final completion at 11:19:01.                                                                                                                                    Time: 83 of 90 seconds.  Estimated final completion at 11:19:01.                                                                                                                                    Time: 84 of 90 seconds.  Estimated final completion at 11:19:01.                                                                                                                                    Time: 85 of 90 seconds.  Estimated final completion at 11:19:01.                                                                                                                                    Time: 86 of 90 seconds.  Estimated final completion at 11:19:01.                                                                                                                                    Time: 87 of 90 seconds.  Estimated final completion at 11:19:01.                                                                                                                                    Time: 88 of 90 seconds.  Estimated final completion at 11:19:01.                                                                                                                                    Time: 89 of 90 seconds.  Estimated final completion at 11:19:02.                                                                                                                                    Time: 90 of 90 seconds.  Estimated final completion at 11:19:02.                                                                                                                                   
  Total Real Time:       4.8346 minutes
  Total CPU Time:        4.832 minutes
  Simulation CPU Time:   4.562 minutes
  Simulated Time:        1.5 minutes
  Time Ratio (Sim/CPU):  0.3288

  OpenFAST terminated normally.

