
 **************************************************************************************************
 OpenFAST

 Copyright (C) 2023 National Renewable Energy Laboratory
 Copyright (C) 2023 Envision Energy USA LTD

 This program is licensed under Apache License Version 2.0 and comes with ABSOLUTELY NO WARRANTY.
 See the "LICENSE" file distributed with this software for details.
 **************************************************************************************************

 OpenFAST-v3.5.0-141-gc8a205dc-dirty
 Compile Info:
  - Compiler: GCC version 10.5.0
  - Architecture: 64 bit
  - Precision: double
  - OpenMP: No
  - Date: Oct 18 2023
  - Time: 14:34:30
 Execution Info:
  - Date: 10/18/2023
  - Time: 14:38:52-0600

 OpenFAST input file heading:
     FAST Certification Test #25: NREL 5.0 MW Baseline Wind Turbine with OC4-DeepCwind semi
     configuration, for use in offshore analysis

 Running ElastoDyn.
 Nodal outputs section of ElastoDyn input file not found or improperly formatted.
 Running AeroDyn.
 AD15 Nodal Outputs: Nodal output section of AeroDyn input file not found or improperly formatted.
 Skipping nodal outputs.
 Warning: Turning off Unsteady Aerodynamics because polar has constant data. (node 1, blade 1)
 Warning: Turning off Unsteady Aerodynamics because polar has constant data. (node 2, blade 1)
 Warning: Turning off Unsteady Aerodynamics because polar has constant data. (node 3, blade 1)
 Warning: Turning off Unsteady Aerodynamics because polar has constant data. (node 4, blade 1)
 Warning: Turning off Unsteady Aerodynamics because polar has constant data. (node 1, blade 2)
 Warning: Turning off Unsteady Aerodynamics because polar has constant data. (node 2, blade 2)
 Warning: Turning off Unsteady Aerodynamics because polar has constant data. (node 3, blade 2)
 Warning: Turning off Unsteady Aerodynamics because polar has constant data. (node 4, blade 2)
 Warning: Turning off Unsteady Aerodynamics because polar has constant data. (node 1, blade 3)
 Warning: Turning off Unsteady Aerodynamics because polar has constant data. (node 2, blade 3)
 Warning: Turning off Unsteady Aerodynamics because polar has constant data. (node 3, blade 3)
 Warning: Turning off Unsteady Aerodynamics because polar has constant data. (node 4, blade 3)
 Running InflowWind.
 Running HydroDyn.
  Generating incident wave kinematics and current time history.
  Reading in WAMIT output with root name
  "/Users/aplatt/software-development/GitHub/openfast-4/build/reg_tests/glue-codes/openfast/5MW_OC4
  Semi_WSt_WavesWN/../5MW_Baseline/HydroData/marin_semi".
  Computing radiation impulse response functions and wave diffraction forces.
  Calculating second order difference-frequency force using the full quadratic transfer function.
  Calculating second order sum-frequency force using the full quadratic transfer function.
 Running MoorDyn (v2.0.0, 2023-09-18).
    This is MoorDyn v2, with significant input file changes from v1.
    Copyright: (C) 2023 National Renewable Energy Laboratory, (C) 2019 Matt Hall
    Parsing MoorDyn input file:
    /Users/aplatt/software-development/GitHub/openfast-4/build/reg_tests/glue-codes/openfast/5MW_OC
    4Semi_WSt_WavesWN/NRELOffshrBsline5MW_OC4DeepCwindSemi_MoorDyn.dat
   Created mooring system:  3 lines, 6 points, 0 rods, 0 bodies.
    Catenary solve of Line 1 unsuccessful. Initializing as linear.
    Catenary solve of Line 2 unsuccessful. Initializing as linear.
    Catenary solve of Line 3 unsuccessful. Initializing as linear.
    Finalizing initial conditions using dynamic relaxation.

   t=0.2  FairTen 1: 44479, 1, 2                                                                     t=0.4  FairTen 1: 57193, 44479, 1                                                                 t=0.6  FairTen 1: 64285, 57193, 44479                                                             t=0.8  FairTen 1: 68165, 64285, 57193                                                             t=1  FairTen 1: 70465, 68165, 64285                                                               t=1.2  FairTen 1: 72030, 70465, 68165                                                             t=1.4  FairTen 1: 73257, 72030, 70465                                                             t=1.6  FairTen 1: 74324, 73257, 72030                                                             t=1.8  FairTen 1: 75312, 74324, 73257                                                             t=2  FairTen 1: 76254, 75312, 74324                                                               t=2.2  FairTen 1: 77166, 76254, 75312                                                             t=2.4  FairTen 1: 78057, 77166, 76254                                                             t=2.6  FairTen 1: 78927, 78057, 77166                                                             t=2.8  FairTen 1: 79780, 78927, 78057                                                             t=3  FairTen 1: 80616, 79780, 78927                                                               t=3.2  FairTen 1: 81435, 80616, 79780                                                             t=3.4  FairTen 1: 82239, 81435, 80616                                                             t=3.6  FairTen 1: 83026, 82239, 81435                                                             t=3.8  FairTen 1: 83799, 83026, 82239                                                             t=4  FairTen 1: 84556, 83799, 83026                                                               t=4.2  FairTen 1: 85298, 84556, 83799                                                             t=4.4  FairTen 1: 86026, 85298, 84556                                                             t=4.6  FairTen 1: 86740, 86026, 85298                                                             t=4.8  FairTen 1: 1.03447E+05, 86740, 86026                                                       t=5  FairTen 1: 98559, 1.03447E+05, 86740                                                         t=5.2  FairTen 1: 97511, 98559, 1.03447E+05                                                       t=5.4  FairTen 1: 97301, 97511, 98559                                                             t=5.6  FairTen 1: 1.15882E+05, 97301, 97511                                                       t=5.8  FairTen 1: 1.06888E+05, 1.15882E+05, 97301                                                 t=6  FairTen 1: 1.06302E+05, 1.06888E+05, 1.15882E+05                                             t=6.2  FairTen 1: 1.06498E+05, 1.06302E+05, 1.06888E+05                                           t=6.4  FairTen 1: 1.23685E+05, 1.06498E+05, 1.06302E+05                                           t=6.6  FairTen 1: 1.16440E+05, 1.23685E+05, 1.06498E+05                                           t=6.8  FairTen 1: 1.15905E+05, 1.16440E+05, 1.23685E+05                                           t=7  FairTen 1: 1.16114E+05, 1.15905E+05, 1.16440E+05                                             t=7.2  FairTen 1: 1.16529E+05, 1.16114E+05, 1.15905E+05                                           t=7.4  FairTen 1: 1.28256E+05, 1.16529E+05, 1.16114E+05                                           t=7.6  FairTen 1: 1.25392E+05, 1.28256E+05, 1.16529E+05                                           t=7.8  FairTen 1: 1.25486E+05, 1.25392E+05, 1.28256E+05                                           t=8  FairTen 1: 1.25841E+05, 1.25486E+05, 1.25392E+05                                             t=8.2  FairTen 1: 1.26372E+05, 1.25841E+05, 1.25486E+05                                           t=8.4  FairTen 1: 1.36424E+05, 1.26372E+05, 1.25841E+05                                           t=8.6  FairTen 1: 1.34594E+05, 1.36424E+05, 1.26372E+05                                           t=8.8  FairTen 1: 1.34873E+05, 1.34594E+05, 1.36424E+05                                           t=9  FairTen 1: 1.35286E+05, 1.34873E+05, 1.34594E+05                                             t=9.2  FairTen 1: 1.35771E+05, 1.35286E+05, 1.34873E+05                                           t=9.4  FairTen 1: 1.49244E+05, 1.35771E+05, 1.35286E+05                                           t=9.6  FairTen 1: 1.43530E+05, 1.49244E+05, 1.35771E+05                                           t=9.8  FairTen 1: 1.44011E+05, 1.43530E+05, 1.49244E+05                                           t=10  FairTen 1: 2.19152E+05, 1.44011E+05, 1.43530E+05                                            t=10.2  FairTen 1: 1.98992E+05, 2.19152E+05, 1.44011E+05                                          t=10.4  FairTen 1: 1.67470E+05, 1.98992E+05, 2.19152E+05                                          t=10.6  FairTen 1: 1.82709E+05, 1.67470E+05, 1.98992E+05                                          t=10.8  FairTen 1: 1.68894E+05, 1.82709E+05, 1.67470E+05                                          t=11  FairTen 1: 1.73499E+05, 1.68894E+05, 1.82709E+05                                            t=11.2  FairTen 1: 1.74933E+05, 1.73499E+05, 1.68894E+05                                          t=11.4  FairTen 1: 1.74835E+05, 1.74933E+05, 1.73499E+05                                          t=11.6  FairTen 1: 1.92813E+05, 1.74835E+05, 1.74933E+05                                          t=11.8  FairTen 1: 1.78263E+05, 1.92813E+05, 1.74835E+05                                          t=12  FairTen 1: 1.83518E+05, 1.78263E+05, 1.92813E+05                                            t=12.2  FairTen 1: 1.86444E+05, 1.83518E+05, 1.78263E+05                                          t=12.4  FairTen 1: 1.85092E+05, 1.86444E+05, 1.83518E+05                                          t=12.6  FairTen 1: 1.88460E+05, 1.85092E+05, 1.86444E+05                                          t=12.8  FairTen 1: 2.04094E+05, 1.88460E+05, 1.85092E+05                                          t=13  FairTen 1: 1.91045E+05, 2.04094E+05, 1.88460E+05                                            t=13.2  FairTen 1: 1.94674E+05, 1.91045E+05, 2.04094E+05                                          t=13.4  FairTen 1: 1.99275E+05, 1.94674E+05, 1.91045E+05                                          t=13.6  FairTen 1: 1.98149E+05, 1.99275E+05, 1.94674E+05                                          t=13.8  FairTen 1: 1.98816E+05, 1.98149E+05, 1.99275E+05                                          t=14  FairTen 1: 2.19141E+05, 1.98816E+05, 1.98149E+05                                            t=14.2  FairTen 1: 2.11498E+05, 2.19141E+05, 1.98816E+05                                          t=14.4  FairTen 1: 2.03894E+05, 2.11498E+05, 2.19141E+05                                          t=14.6  FairTen 1: 2.09551E+05, 2.03894E+05, 2.11498E+05                                          t=14.8  FairTen 1: 2.13218E+05, 2.09551E+05, 2.03894E+05                                          t=15  FairTen 1: 2.12227E+05, 2.13218E+05, 2.09551E+05                                            t=15.2  FairTen 1: 2.05671E+05, 2.12227E+05, 2.13218E+05                                          t=15.4  FairTen 1: 2.01979E+05, 2.05671E+05, 2.12227E+05                                          t=15.6  FairTen 1: 2.23860E+05, 2.01979E+05, 2.05671E+05                                          t=15.8  FairTen 1: 2.14353E+05, 2.23860E+05, 2.01979E+05                                          t=16  FairTen 1: 2.08845E+05, 2.14353E+05, 2.23860E+05                                            t=16.2  FairTen 1: 2.12414E+05, 2.08845E+05, 2.14353E+05                                          t=16.4  FairTen 1: 2.15669E+05, 2.12414E+05, 2.08845E+05                                          t=16.6  FairTen 1: 2.15485E+05, 2.15669E+05, 2.12414E+05                                          t=16.8  FairTen 1: 2.15617E+05, 2.15485E+05, 2.15669E+05                                          t=17  FairTen 1: 2.17007E+05, 2.15617E+05, 2.15485E+05                                            t=17.2  FairTen 1: 2.18191E+05, 2.17007E+05, 2.15617E+05                                          t=17.4  FairTen 1: 2.18940E+05, 2.18191E+05, 2.17007E+05                                          t=17.6  FairTen 1: 2.19794E+05, 2.18940E+05, 2.18191E+05                                          t=17.8  FairTen 1: 2.37799E+05, 2.19794E+05, 2.18940E+05                                          t=18  FairTen 1: 2.29707E+05, 2.37799E+05, 2.19794E+05                                            t=18.2  FairTen 1: 2.25799E+05, 2.29707E+05, 2.37799E+05                                          t=18.4  FairTen 1: 2.28351E+05, 2.25799E+05, 2.29707E+05                                          t=18.6  FairTen 1: 2.32204E+05, 2.28351E+05, 2.25799E+05                                          t=18.8  FairTen 1: 2.32676E+05, 2.32204E+05, 2.28351E+05                                          t=19  FairTen 1: 2.32610E+05, 2.32676E+05, 2.32204E+05                                            t=19.2  FairTen 1: 2.33903E+05, 2.32610E+05, 2.32676E+05                                          t=19.4  FairTen 1: 2.35384E+05, 2.33903E+05, 2.32610E+05                                          t=19.6  FairTen 1: 2.36311E+05, 2.35384E+05, 2.33903E+05                                          t=19.8  FairTen 1: 2.37120E+05, 2.36311E+05, 2.35384E+05                                          t=20  FairTen 1: 2.38120E+05, 2.37120E+05, 2.36311E+05                                            t=20.2  FairTen 1: 2.39152E+05, 2.38120E+05, 2.37120E+05                                          t=20.4  FairTen 1: 2.40826E+05, 2.39152E+05, 2.38120E+05                                          t=20.6  FairTen 1: 2.29311E+05, 2.40826E+05, 2.39152E+05                                          t=20.8  FairTen 1: 2.33235E+05, 2.29311E+05, 2.40826E+05                                          t=21  FairTen 1: 2.38031E+05, 2.33235E+05, 2.29311E+05                                            t=21.2  FairTen 1: 2.37815E+05, 2.38031E+05, 2.33235E+05                                          t=21.4  FairTen 1: 2.37347E+05, 2.37815E+05, 2.38031E+05                                          t=21.6  FairTen 1: 2.38394E+05, 2.37347E+05, 2.37815E+05                                          t=21.8  FairTen 1: 2.39915E+05, 2.38394E+05, 2.37347E+05                                          t=22  FairTen 1: 2.40842E+05, 2.39915E+05, 2.38394E+05                                            t=22.2  FairTen 1: 2.41539E+05, 2.40842E+05, 2.39915E+05                                          t=22.4  FairTen 1: 2.42455E+05, 2.41539E+05, 2.40842E+05                                          t=22.6  FairTen 1: 2.43490E+05, 2.42455E+05, 2.41539E+05                                          t=22.8  FairTen 1: 2.44458E+05, 2.43490E+05, 2.42455E+05                                          t=23  FairTen 1: 2.45378E+05, 2.44458E+05, 2.43490E+05                                            t=23.2  FairTen 1: 2.46322E+05, 2.45378E+05, 2.44458E+05                                          t=23.4  FairTen 1: 2.47291E+05, 2.46322E+05, 2.45378E+05                                          t=23.6  FairTen 1: 2.48252E+05, 2.47291E+05, 2.46322E+05                                          t=23.8  FairTen 1: 2.49202E+05, 2.48252E+05, 2.47291E+05                                          t=24  FairTen 1: 2.50150E+05, 2.49202E+05, 2.48252E+05                                            t=24.2  FairTen 1: 2.51098E+05, 2.50150E+05, 2.49202E+05                                          t=24.4  FairTen 1: 2.61620E+05, 2.51098E+05, 2.50150E+05                                          t=24.6  FairTen 1: 2.62816E+05, 2.61620E+05, 2.51098E+05                                          t=24.8  FairTen 1: 2.60241E+05, 2.62816E+05, 2.61620E+05                                          t=25  FairTen 1: 2.59655E+05, 2.60241E+05, 2.62816E+05                                            t=25.2  FairTen 1: 2.63155E+05, 2.59655E+05, 2.60241E+05                                          t=25.4  FairTen 1: 2.64869E+05, 2.63155E+05, 2.59655E+05                                          t=25.6  FairTen 1: 2.65400E+05, 2.64869E+05, 2.63155E+05                                          t=25.8  FairTen 1: 2.66087E+05, 2.65400E+05, 2.64869E+05                                          t=26  FairTen 1: 2.28330E+05, 2.66087E+05, 2.65400E+05                                            t=26.2  FairTen 1: 2.49112E+05, 2.28330E+05, 2.66087E+05                                          t=26.4  FairTen 1: 2.55727E+05, 2.49112E+05, 2.28330E+05                                          t=26.6  FairTen 1: 2.57129E+05, 2.55727E+05, 2.49112E+05                                          t=26.8  FairTen 1: 2.53638E+05, 2.57129E+05, 2.55727E+05                                          t=27  FairTen 1: 2.54246E+05, 2.53638E+05, 2.57129E+05                                            t=27.2  FairTen 1: 2.56519E+05, 2.54246E+05, 2.53638E+05                                          t=27.4  FairTen 1: 2.57798E+05, 2.56519E+05, 2.54246E+05                                          t=27.6  FairTen 1: 2.58254E+05, 2.57798E+05, 2.56519E+05                                          t=27.8  FairTen 1: 2.58936E+05, 2.58254E+05, 2.57798E+05                                          t=28  FairTen 1: 2.60005E+05, 2.58936E+05, 2.58254E+05                                            t=28.2  FairTen 1: 2.61067E+05, 2.60005E+05, 2.58936E+05                                          t=28.4  FairTen 1: 2.62002E+05, 2.61067E+05, 2.60005E+05                                          t=28.6  FairTen 1: 2.62933E+05, 2.62002E+05, 2.61067E+05                                          t=28.8  FairTen 1: 2.63927E+05, 2.62933E+05, 2.62002E+05                                          t=29  FairTen 1: 2.64944E+05, 2.63927E+05, 2.62933E+05                                            t=29.2  FairTen 1: 2.76448E+05, 2.64944E+05, 2.63927E+05                                          t=29.4  FairTen 1: 2.77470E+05, 2.76448E+05, 2.64944E+05                                          t=29.6  FairTen 1: 2.75686E+05, 2.77470E+05, 2.76448E+05                                          t=29.8  FairTen 1: 2.75008E+05, 2.75686E+05, 2.77470E+05                                          t=30  FairTen 1: 2.77904E+05, 2.75008E+05, 2.75686E+05                                            t=30.2  FairTen 1: 2.79807E+05, 2.77904E+05, 2.75008E+05                                          t=30.4  FairTen 1: 2.80832E+05, 2.79807E+05, 2.77904E+05                                          t=30.6  FairTen 1: 2.81721E+05, 2.80832E+05, 2.79807E+05                                          t=30.8  FairTen 1: 2.83060E+05, 2.81721E+05, 2.80832E+05                                          t=31  FairTen 1: 2.84454E+05, 2.83060E+05, 2.81721E+05                                            t=31.2  FairTen 1: 2.85677E+05, 2.84454E+05, 2.83060E+05                                          t=31.4  FairTen 1: 2.86787E+05, 2.85677E+05, 2.84454E+05                                          t=31.6  FairTen 1: 2.87900E+05, 2.86787E+05, 2.85677E+05                                          t=31.8  FairTen 1: 2.58531E+05, 2.87900E+05, 2.86787E+05                                          t=32  FairTen 1: 2.60368E+05, 2.58531E+05, 2.87900E+05                                            t=32.2  FairTen 1: 2.74368E+05, 2.60368E+05, 2.58531E+05                                          t=32.4  FairTen 1: 2.92275E+05, 2.74368E+05, 2.60368E+05                                          t=32.6  FairTen 1: 2.85626E+05, 2.92275E+05, 2.74368E+05                                          t=32.8  FairTen 1: 2.82953E+05, 2.85626E+05, 2.92275E+05                                          t=33  FairTen 1: 2.84118E+05, 2.82953E+05, 2.85626E+05                                            t=33.2  FairTen 1: 2.87333E+05, 2.84118E+05, 2.82953E+05                                          t=33.4  FairTen 1: 2.88871E+05, 2.87333E+05, 2.84118E+05                                          t=33.6  FairTen 1: 2.89658E+05, 2.88871E+05, 2.87333E+05                                          t=33.8  FairTen 1: 2.90647E+05, 2.89658E+05, 2.88871E+05                                          t=34  FairTen 1: 2.92056E+05, 2.90647E+05, 2.89658E+05                                            t=34.2  FairTen 1: 2.93521E+05, 2.92056E+05, 2.90647E+05                                          t=34.4  FairTen 1: 3.18025E+05, 2.93521E+05, 2.92056E+05                                          t=34.6  FairTen 1: 3.17498E+05, 3.18025E+05, 2.93521E+05                                          t=34.8  FairTen 1: 3.14169E+05, 3.17498E+05, 3.18025E+05                                          t=35  FairTen 1: 3.12569E+05, 3.14169E+05, 3.17498E+05                                            t=35.2  FairTen 1: 3.18160E+05, 3.12569E+05, 3.14169E+05                                          t=35.4  FairTen 1: 3.69853E+05, 3.18160E+05, 3.12569E+05                                          t=35.6  FairTen 1: 4.74022E+05, 3.69853E+05, 3.18160E+05                                          t=35.8  FairTen 1: 5.12571E+05, 4.74022E+05, 3.69853E+05                                          t=36  FairTen 1: 4.85288E+05, 5.12571E+05, 4.74022E+05                                            t=36.2  FairTen 1: 4.97625E+05, 4.85288E+05, 5.12571E+05                                          t=36.4  FairTen 1: 4.96854E+05, 4.97625E+05, 4.85288E+05                                          t=36.6  FairTen 1: 4.76857E+05, 4.96854E+05, 4.97625E+05                                          t=36.8  FairTen 1: 4.93889E+05, 4.76857E+05, 4.96854E+05                                          t=37  FairTen 1: 5.08773E+05, 4.93889E+05, 4.76857E+05                                            t=37.2  FairTen 1: 5.11401E+05, 5.08773E+05, 4.93889E+05                                          t=37.4  FairTen 1: 5.26799E+05, 5.11401E+05, 5.08773E+05                                          t=37.6  FairTen 1: 5.39092E+05, 5.26799E+05, 5.11401E+05                                          t=37.8  FairTen 1: 5.43540E+05, 5.39092E+05, 5.26799E+05                                          t=38  FairTen 1: 5.53437E+05, 5.43540E+05, 5.39092E+05                                            t=38.2  FairTen 1: 5.63568E+05, 5.53437E+05, 5.43540E+05                                          t=38.4  FairTen 1: 5.70867E+05, 5.63568E+05, 5.53437E+05                                          t=38.6  FairTen 1: 5.81457E+05, 5.70867E+05, 5.63568E+05                                          t=38.8  FairTen 1: 5.93184E+05, 5.81457E+05, 5.70867E+05                                          t=39  FairTen 1: 6.03403E+05, 5.93184E+05, 5.81457E+05                                            t=39.2  FairTen 1: 6.14672E+05, 6.03403E+05, 5.93184E+05                                          t=39.4  FairTen 1: 6.26348E+05, 6.14672E+05, 6.03403E+05                                          t=39.6  FairTen 1: 6.36897E+05, 6.26348E+05, 6.14672E+05                                          t=39.8  FairTen 1: 6.47605E+05, 6.36897E+05, 6.26348E+05                                          t=40  FairTen 1: 6.58617E+05, 6.47605E+05, 6.36897E+05                                            t=40.2  FairTen 1: 6.69180E+05, 6.58617E+05, 6.47605E+05                                          t=40.4  FairTen 1: 6.79897E+05, 6.69180E+05, 6.58617E+05                                          t=40.6  FairTen 1: 6.90999E+05, 6.79897E+05, 6.69180E+05                                          t=40.8  FairTen 1: 7.02033E+05, 6.90999E+05, 6.79897E+05                                          t=41  FairTen 1: 7.13173E+05, 7.02033E+05, 6.90999E+05                                            t=41.2  FairTen 1: 7.24578E+05, 7.13173E+05, 7.02033E+05                                          t=41.4  FairTen 1: 7.35998E+05, 7.24578E+05, 7.13173E+05                                          t=41.6  FairTen 1: 7.47458E+05, 7.35998E+05, 7.24578E+05                                          t=41.8  FairTen 1: 7.59069E+05, 7.47458E+05, 7.35998E+05                                          t=42  FairTen 1: 7.70705E+05, 7.59069E+05, 7.47458E+05                                            t=42.2  FairTen 1: 7.82335E+05, 7.70705E+05, 7.59069E+05                                          t=42.4  FairTen 1: 7.94021E+05, 7.82335E+05, 7.70705E+05                                          t=42.6  FairTen 1: 8.05706E+05, 7.94021E+05, 7.82335E+05                                          t=42.8  FairTen 1: 8.17354E+05, 8.05706E+05, 7.94021E+05                                          t=43  FairTen 1: 8.28994E+05, 8.17354E+05, 8.05706E+05                                            t=43.2  FairTen 1: 8.40599E+05, 8.28994E+05, 8.17354E+05                                          t=43.4  FairTen 1: 8.52117E+05, 8.40599E+05, 8.28994E+05                                          t=43.6  FairTen 1: 8.63535E+05, 8.52117E+05, 8.40599E+05                                          t=43.8  FairTen 1: 8.74810E+05, 8.63535E+05, 8.52117E+05                                          t=44  FairTen 1: 8.85879E+05, 8.74810E+05, 8.63535E+05                                            t=44.2  FairTen 1: 8.96704E+05, 8.85879E+05, 8.74810E+05                                          t=44.4  FairTen 1: 9.07247E+05, 8.96704E+05, 8.85879E+05                                          t=44.6  FairTen 1: 9.17463E+05, 9.07247E+05, 8.96704E+05                                          t=44.8  FairTen 1: 9.27323E+05, 9.17463E+05, 9.07247E+05                                          t=45  FairTen 1: 9.36797E+05, 9.27323E+05, 9.17463E+05                                            t=45.2  FairTen 1: 9.45848E+05, 9.36797E+05, 9.27323E+05                                          t=45.4  FairTen 1: 9.54433E+05, 9.45848E+05, 9.36797E+05                                          t=45.6  FairTen 1: 9.62509E+05, 9.54433E+05, 9.45848E+05                                          t=45.8  FairTen 1: 9.70025E+05, 9.62509E+05, 9.54433E+05                                          t=46  FairTen 1: 9.76932E+05, 9.70025E+05, 9.62509E+05                                            t=46.2  FairTen 1: 9.83187E+05, 9.76932E+05, 9.70025E+05                                          t=46.4  FairTen 1: 9.88754E+05, 9.83187E+05, 9.76932E+05                                          t=46.6  FairTen 1: 9.93607E+05, 9.88754E+05, 9.83187E+05                                          t=46.8  FairTen 1: 9.97734E+05, 9.93607E+05, 9.88754E+05                                          t=47  FairTen 1: 1.00114E+06, 9.97734E+05, 9.93607E+05                                            t=47.2  FairTen 1: 1.00383E+06, 1.00114E+06, 9.97734E+05                                          t=47.4  FairTen 1: 1.00583E+06, 1.00383E+06, 1.00114E+06                                          t=47.6  FairTen 1: 1.00719E+06, 1.00583E+06, 1.00383E+06                                          t=47.8  FairTen 1: 1.00788E+06, 1.00719E+06, 1.00583E+06                                          t=48  FairTen 1: 1.00633E+06, 1.00788E+06, 1.00719E+06                                            t=48.2  FairTen 1: 1.00478E+06, 1.00633E+06, 1.00788E+06                                          t=48.4  FairTen 1: 1.00385E+06, 1.00478E+06, 1.00633E+06                                          t=48.6  FairTen 1: 1.00212E+06, 1.00385E+06, 1.00478E+06                                       
    Fairlead tensions converged to 1% after 48.6 seconds.
    Fairlead tension: 1.00212E+06
    Fairlead forces: 3.94945E+05, 7.01150E+05, -5.97198E+05
    Fairlead tension: 1.37609E+06
    Fairlead forces: -1.17737E+06, 0, -7.12339E+05
    Fairlead tension: 1.00212E+06
    Fairlead forces: 3.94945E+05, -7.01150E+05, -5.97198E+05
    MoorDyn initialization completed.
 Running ServoDyn.
 Running ServoDyn Interface for Bladed Controllers (using GNU Fortran for Linux).
 Using legacy Bladed DLL interface.

 FAST_InitializeAll:HydroDyn_Init:Waves_Init:VariousWaves_Init: The random number generator in use
 differs from the original code provided by NREL. This pRNG uses 8 seeds instead of the 2 in the
 HydroDyn input file.

  Time: 0 of 60 seconds.
                                                                                                   Time: 1 of 60 seconds.  Estimated final completion at 14:39:46.                                                                                                                                     Time: 2 of 60 seconds.  Estimated final completion at 14:39:47.                                                                                                                                     Time: 3 of 60 seconds.  Estimated final completion at 14:39:46.                                                                                                                                     Time: 4 of 60 seconds.  Estimated final completion at 14:39:45.                                                                                                                                     Time: 5 of 60 seconds.  Estimated final completion at 14:39:44.                                                                                                                                     Time: 6 of 60 seconds.  Estimated final completion at 14:39:44.                                                                                                                                     Time: 7 of 60 seconds.  Estimated final completion at 14:39:45.                                                                                                                                     Time: 8 of 60 seconds.  Estimated final completion at 14:39:43.                                                                                                                                     Time: 9 of 60 seconds.  Estimated final completion at 14:39:44.                                                                                                                                     Time: 10 of 60 seconds.  Estimated final completion at 14:39:43.                                                                                                                                    Time: 11 of 60 seconds.  Estimated final completion at 14:39:44.                                                                                                                                    Time: 12 of 60 seconds.  Estimated final completion at 14:39:48.                                                                                                                                    Time: 13 of 60 seconds.  Estimated final completion at 14:39:52.                                                                                                                                    Time: 14 of 60 seconds.  Estimated final completion at 14:39:45.                                                                                                                                    Time: 15 of 60 seconds.  Estimated final completion at 14:39:44.                                                                                                                                    Time: 16 of 60 seconds.  Estimated final completion at 14:39:48.                                                                                                                                    Time: 17 of 60 seconds.  Estimated final completion at 14:39:46.                                                                                                                                    Time: 18 of 60 seconds.  Estimated final completion at 14:39:45.                                                                                                                                    Time: 19 of 60 seconds.  Estimated final completion at 14:39:45.                                                                                                                                    Time: 20 of 60 seconds.  Estimated final completion at 14:39:45.                                                                                                                                    Time: 21 of 60 seconds.  Estimated final completion at 14:39:45.                                                                                                                                    Time: 22 of 60 seconds.  Estimated final completion at 14:39:44.                                                                                                                                    Time: 23 of 60 seconds.  Estimated final completion at 14:39:46.                                                                                                                                    Time: 24 of 60 seconds.  Estimated final completion at 14:39:47.                                                                                                                                    Time: 25 of 60 seconds.  Estimated final completion at 14:39:45.                                                                                                                                    Time: 26 of 60 seconds.  Estimated final completion at 14:39:50.                                                                                                                                    Time: 27 of 60 seconds.  Estimated final completion at 14:39:48.                                                                                                                                    Time: 28 of 60 seconds.  Estimated final completion at 14:40:03.                                                                                                                                    Time: 29 of 60 seconds.  Estimated final completion at 14:39:52.                                                                                                                                    Time: 30 of 60 seconds.  Estimated final completion at 14:39:49.                                                                                                                                    Time: 31 of 60 seconds.  Estimated final completion at 14:39:46.                                                                                                                                    Time: 32 of 60 seconds.  Estimated final completion at 14:39:45.                                                                                                                                    Time: 33 of 60 seconds.  Estimated final completion at 14:39:46.                                                                                                                                    Time: 34 of 60 seconds.  Estimated final completion at 14:39:47.                                                                                                                                    Time: 35 of 60 seconds.  Estimated final completion at 14:39:46.                                                                                                                                    Time: 36 of 60 seconds.  Estimated final completion at 14:39:47.                                                                                                                                    Time: 37 of 60 seconds.  Estimated final completion at 14:39:48.                                                                                                                                    Time: 38 of 60 seconds.  Estimated final completion at 14:39:48.                                                                                                                                    Time: 39 of 60 seconds.  Estimated final completion at 14:39:51.                                                                                                                                    Time: 40 of 60 seconds.  Estimated final completion at 14:39:50.                                                                                                                                    Time: 41 of 60 seconds.  Estimated final completion at 14:39:48.                                                                                                                                    Time: 42 of 60 seconds.  Estimated final completion at 14:39:48.                                                                                                                                    Time: 43 of 60 seconds.  Estimated final completion at 14:39:48.                                                                                                                                    Time: 44 of 60 seconds.  Estimated final completion at 14:39:48.                                                                                                                                    Time: 45 of 60 seconds.  Estimated final completion at 14:39:48.                                                                                                                                    Time: 46 of 60 seconds.  Estimated final completion at 14:39:48.                                                                                                                                    Time: 47 of 60 seconds.  Estimated final completion at 14:39:50.                                                                                                                                    Time: 48 of 60 seconds.  Estimated final completion at 14:39:49.                                                                                                                                    Time: 49 of 60 seconds.  Estimated final completion at 14:39:49.                                                                                                                                    Time: 50 of 60 seconds.  Estimated final completion at 14:39:49.                                                                                                                                    Time: 51 of 60 seconds.  Estimated final completion at 14:39:49.                                                                                                                                    Time: 52 of 60 seconds.  Estimated final completion at 14:39:49.                                                                                                                                    Time: 53 of 60 seconds.  Estimated final completion at 14:39:49.                                                                                                                                    Time: 54 of 60 seconds.  Estimated final completion at 14:39:49.                                                                                                                                    Time: 55 of 60 seconds.  Estimated final completion at 14:39:49.                                                                                                                                    Time: 56 of 60 seconds.  Estimated final completion at 14:39:49.                                                                                                                                    Time: 57 of 60 seconds.  Estimated final completion at 14:39:49.                                                                                                                                    Time: 58 of 60 seconds.  Estimated final completion at 14:39:49.                                                                                                                                    Time: 59 of 60 seconds.  Estimated final completion at 14:39:49.                                                                                                                                    Time: 60 of 60 seconds.  Estimated final completion at 14:39:49.                                                                                                                                   
  Total Real Time:       56.359 seconds
  Total CPU Time:        53.073 seconds
  Simulation CPU Time:   36.739 seconds
  Simulated Time:        60 seconds
  Time Ratio (Sim/CPU):  1.6332

  OpenFAST terminated normally.

