
 **************************************************************************************************
 OpenFAST

 Copyright (C) 2023 National Renewable Energy Laboratory
 Copyright (C) 2023 Envision Energy USA LTD

 This program is licensed under Apache License Version 2.0 and comes with ABSOLUTELY NO WARRANTY.
 See the "LICENSE" file distributed with this software for details.
 **************************************************************************************************

 OpenFAST-v3.5.0-118-g2774b6c4-dirty
 Compile Info:
  - Compiler: GCC version 10.5.0
  - Architecture: 64 bit
  - Precision: double
  - OpenMP: No
  - Date: Oct 16 2023
  - Time: 11:00:11
 Execution Info:
  - Date: 10/16/2023
  - Time: 11:00:25-0600

 OpenFAST input file heading:
     FAST Certification Test #25: NREL 5.0 MW Baseline Wind Turbine with OC4-DeepCwind semi
     configuration, for use in offshore analysis

 Running ElastoDyn.
 Nodal outputs section of ElastoDyn input file not found or improperly formatted.
 Running AeroDyn.
 AD15 Nodal Outputs: Nodal output section of AeroDyn input file not found or improperly formatted.
 Skipping nodal outputs.
 Warning: Turning off Unsteady Aerodynamics because polar has constant data. (node 1, blade 1)
 Warning: Turning off Unsteady Aerodynamics because polar has constant data. (node 2, blade 1)
 Warning: Turning off Unsteady Aerodynamics because polar has constant data. (node 3, blade 1)
 Warning: Turning off Unsteady Aerodynamics because polar has constant data. (node 4, blade 1)
 Warning: Turning off Unsteady Aerodynamics because polar has constant data. (node 1, blade 2)
 Warning: Turning off Unsteady Aerodynamics because polar has constant data. (node 2, blade 2)
 Warning: Turning off Unsteady Aerodynamics because polar has constant data. (node 3, blade 2)
 Warning: Turning off Unsteady Aerodynamics because polar has constant data. (node 4, blade 2)
 Warning: Turning off Unsteady Aerodynamics because polar has constant data. (node 1, blade 3)
 Warning: Turning off Unsteady Aerodynamics because polar has constant data. (node 2, blade 3)
 Warning: Turning off Unsteady Aerodynamics because polar has constant data. (node 3, blade 3)
 Warning: Turning off Unsteady Aerodynamics because polar has constant data. (node 4, blade 3)
 Running InflowWind.
 Running HydroDyn.
  Generating incident wave kinematics and current time history.
  Reading in WAMIT output with root name
  "/Users/aplatt/software-development/GitHub/openfast-4/build/reg_tests/glue-codes/openfast/5MW_OC4
  Semi_WSt_WavesWN/../5MW_Baseline/HydroData/marin_semi".
  Computing radiation impulse response functions and wave diffraction forces.
  Calculating second order difference-frequency force using the full quadratic transfer function.
  Calculating second order sum-frequency force using the full quadratic transfer function.
 Running MoorDyn (v2.0.0, 2023-09-18).
    This is MoorDyn v2, with significant input file changes from v1.
    Copyright: (C) 2023 National Renewable Energy Laboratory, (C) 2019 Matt Hall
    Parsing MoorDyn input file:
    /Users/aplatt/software-development/GitHub/openfast-4/build/reg_tests/glue-codes/openfast/5MW_OC
    4Semi_WSt_WavesWN/NRELOffshrBsline5MW_OC4DeepCwindSemi_MoorDyn.dat
   Created mooring system:  3 lines, 6 points, 0 rods, 0 bodies.
    Catenary solve of Line 1 unsuccessful. Initializing as linear.
    Catenary solve of Line 2 unsuccessful. Initializing as linear.
    Catenary solve of Line 3 unsuccessful. Initializing as linear.
    Finalizing initial conditions using dynamic relaxation.

   t=2  FairTen 1: 1.07502E+05, 1, 2                                                                 t=4  FairTen 1: 1.48144E+05, 1.07502E+05, 1                                                       t=6  FairTen 1: 1.79467E+05, 1.48144E+05, 1.07502E+05                                             t=8  FairTen 1: 2.04621E+05, 1.79467E+05, 1.48144E+05                                             t=10  FairTen 1: 2.46905E+05, 2.04621E+05, 1.79467E+05                                            t=12  FairTen 1: 2.60120E+05, 2.46905E+05, 2.04621E+05                                            t=14  FairTen 1: 2.86253E+05, 2.60120E+05, 2.46905E+05                                            t=16  FairTen 1: 3.10683E+05, 2.86253E+05, 2.60120E+05                                            t=18  FairTen 1: 3.45880E+05, 3.10683E+05, 2.86253E+05                                            t=20  FairTen 1: 6.42980E+05, 3.45880E+05, 3.10683E+05                                            t=22  FairTen 1: 8.70232E+05, 6.42980E+05, 3.45880E+05                                            t=24  FairTen 1: 1.03070E+06, 8.70232E+05, 6.42980E+05                                            t=26  FairTen 1: 9.77854E+05, 1.03070E+06, 8.70232E+05                                            t=28  FairTen 1: 1.00839E+06, 9.77854E+05, 1.03070E+06                                            t=30  FairTen 1: 1.00398E+06, 1.00839E+06, 9.77854E+05                                            t=32  FairTen 1: 9.92213E+05, 1.00398E+06, 1.00839E+06                                            t=34  FairTen 1: 1.00342E+06, 9.92213E+05, 1.00398E+06                                            t=36  FairTen 1: 9.99776E+05, 1.00342E+06, 9.92213E+05                                            t=38  FairTen 1: 1.00243E+06, 9.99776E+05, 1.00342E+06                                            t=40  FairTen 1: 9.97017E+05, 1.00243E+06, 9.99776E+05                                            t=42  FairTen 1: 1.00183E+06, 9.97017E+05, 1.00243E+06                                            t=44  FairTen 1: 1.00032E+06, 1.00183E+06, 9.97017E+05                                            t=46  FairTen 1: 9.98457E+05, 1.00032E+06, 1.00183E+06                                            t=48  FairTen 1: 1.00191E+06, 9.98457E+05, 1.00032E+06                                            t=50  FairTen 1: 9.98966E+05, 1.00191E+06, 9.98457E+05                                            t=52  FairTen 1: 1.00003E+06, 9.98966E+05, 1.00191E+06                                            t=54  FairTen 1: 9.99678E+05, 1.00003E+06, 9.98966E+05                                            t=56  FairTen 1: 1.00193E+06, 9.99678E+05, 1.00003E+06                                            t=58  FairTen 1: 9.98999E+05, 1.00193E+06, 9.99678E+05                                            t=60  FairTen 1: 1.00007E+06, 9.98999E+05, 1.00193E+06                                             Fairlead tensions did not converge within TMaxIC=60 seconds.
    MoorDyn initialization completed.
 Running ServoDyn.
 Running ServoDyn Interface for Bladed Controllers (using GNU Fortran for Linux).
 Using legacy Bladed DLL interface.

 FAST_InitializeAll:HydroDyn_Init:Waves_Init:VariousWaves_Init: The random number generator in use
 differs from the original code provided by NREL. This pRNG uses 8 seeds instead of the 2 in the
 HydroDyn input file.

  Time: 0 of 60 seconds.
                                                                                                   Time: 1 of 60 seconds.  Estimated final completion at 11:01:36.                                                                                                                                     Time: 2 of 60 seconds.  Estimated final completion at 11:01:32.                                                                                                                                     Time: 3 of 60 seconds.  Estimated final completion at 11:01:35.                                                                                                                                     Time: 4 of 60 seconds.  Estimated final completion at 11:01:42.                                                                                                                                     Time: 5 of 60 seconds.  Estimated final completion at 11:01:41.                                                                                                                                     Time: 6 of 60 seconds.  Estimated final completion at 11:01:52.                                                                                                                                     Time: 7 of 60 seconds.  Estimated final completion at 11:01:35.                                                                                                                                     Time: 8 of 60 seconds.  Estimated final completion at 11:01:38.                                                                                                                                     Time: 9 of 60 seconds.  Estimated final completion at 11:01:37.                                                                                                                                     Time: 10 of 60 seconds.  Estimated final completion at 11:01:36.                                                                                                                                    Time: 11 of 60 seconds.  Estimated final completion at 11:01:40.                                                                                                                                    Time: 12 of 60 seconds.  Estimated final completion at 11:01:37.                                                                                                                                    Time: 13 of 60 seconds.  Estimated final completion at 11:01:36.                                                                                                                                    Time: 14 of 60 seconds.  Estimated final completion at 11:01:36.                                                                                                                                    Time: 15 of 60 seconds.  Estimated final completion at 11:01:36.                                                                                                                                    Time: 16 of 60 seconds.  Estimated final completion at 11:01:39.                                                                                                                                    Time: 17 of 60 seconds.  Estimated final completion at 11:01:40.                                                                                                                                    Time: 18 of 60 seconds.  Estimated final completion at 11:01:43.                                                                                                                                    Time: 19 of 60 seconds.  Estimated final completion at 11:01:42.                                                                                                                                    Time: 20 of 60 seconds.  Estimated final completion at 11:01:40.                                                                                                                                    Time: 21 of 60 seconds.  Estimated final completion at 11:01:37.                                                                                                                                    Time: 22 of 60 seconds.  Estimated final completion at 11:01:37.                                                                                                                                    Time: 23 of 60 seconds.  Estimated final completion at 11:01:40.                                                                                                                                    Time: 24 of 60 seconds.  Estimated final completion at 11:01:38.                                                                                                                                    Time: 25 of 60 seconds.  Estimated final completion at 11:01:37.                                                                                                                                    Time: 26 of 60 seconds.  Estimated final completion at 11:01:38.                                                                                                                                    Time: 27 of 60 seconds.  Estimated final completion at 11:01:43.                                                                                                                                    Time: 28 of 60 seconds.  Estimated final completion at 11:01:40.                                                                                                                                    Time: 29 of 60 seconds.  Estimated final completion at 11:01:37.                                                                                                                                    Time: 30 of 60 seconds.  Estimated final completion at 11:01:40.                                                                                                                                    Time: 31 of 60 seconds.  Estimated final completion at 11:01:38.                                                                                                                                    Time: 32 of 60 seconds.  Estimated final completion at 11:01:37.                                                                                                                                    Time: 33 of 60 seconds.  Estimated final completion at 11:01:36.                                                                                                                                    Time: 34 of 60 seconds.  Estimated final completion at 11:01:39.                                                                                                                                    Time: 35 of 60 seconds.  Estimated final completion at 11:01:37.                                                                                                                                    Time: 36 of 60 seconds.  Estimated final completion at 11:01:37.                                                                                                                                    Time: 37 of 60 seconds.  Estimated final completion at 11:01:38.                                                                                                                                    Time: 38 of 60 seconds.  Estimated final completion at 11:01:37.                                                                                                                                    Time: 39 of 60 seconds.  Estimated final completion at 11:01:37.                                                                                                                                    Time: 40 of 60 seconds.  Estimated final completion at 11:01:38.                                                                                                                                    Time: 41 of 60 seconds.  Estimated final completion at 11:01:38.                                                                                                                                    Time: 42 of 60 seconds.  Estimated final completion at 11:01:38.                                                                                                                                    Time: 43 of 60 seconds.  Estimated final completion at 11:01:38.                                                                                                                                    Time: 44 of 60 seconds.  Estimated final completion at 11:01:38.                                                                                                                                    Time: 45 of 60 seconds.  Estimated final completion at 11:01:38.                                                                                                                                    Time: 46 of 60 seconds.  Estimated final completion at 11:01:38.                                                                                                                                    Time: 47 of 60 seconds.  Estimated final completion at 11:01:39.                                                                                                                                    Time: 48 of 60 seconds.  Estimated final completion at 11:01:38.                                                                                                                                    Time: 49 of 60 seconds.  Estimated final completion at 11:01:38.                                                                                                                                    Time: 50 of 60 seconds.  Estimated final completion at 11:01:39.                                                                                                                                    Time: 51 of 60 seconds.  Estimated final completion at 11:01:40.                                                                                                                                    Time: 52 of 60 seconds.  Estimated final completion at 11:01:39.                                                                                                                                    Time: 53 of 60 seconds.  Estimated final completion at 11:01:39.                                                                                                                                    Time: 54 of 60 seconds.  Estimated final completion at 11:01:39.                                                                                                                                    Time: 55 of 60 seconds.  Estimated final completion at 11:01:39.                                                                                                                                    Time: 56 of 60 seconds.  Estimated final completion at 11:01:39.                                                                                                                                    Time: 57 of 60 seconds.  Estimated final completion at 11:01:39.                                                                                                                                    Time: 58 of 60 seconds.  Estimated final completion at 11:01:39.                                                                                                                                    Time: 59 of 60 seconds.  Estimated final completion at 11:01:39.                                                                                                                                    Time: 60 of 60 seconds.  Estimated final completion at 11:01:39.                                                                                                                                   
  Total Real Time:       1.2291 minutes
  Total CPU Time:        1.1851 minutes
  Simulation CPU Time:   0.80699 minutes
  Simulated Time:        1 minutes
  Time Ratio (Sim/CPU):  1.2392

  OpenFAST terminated normally.

