
 **************************************************************************************************
 OpenFAST

 Copyright (C) 2022 National Renewable Energy Laboratory
 Copyright (C) 2022 Envision Energy USA LTD

 This program is licensed under Apache License Version 2.0 and comes with ABSOLUTELY NO WARRANTY.
 See the "LICENSE" file distributed with this software for details.
 **************************************************************************************************

 OpenFAST-v3.2.1-270-gf067eb99-dirty
 Compile Info:
  - Compiler: GCC version 10.3.0
  - Architecture: 64 bit
  - Precision: double
  - OpenMP: No
  - Date: Sep  8 2022
  - Time: 13:54:10
 Execution Info:
  - Date: 09/08/2022
  - Time: 14:18:23-0600

 OpenFAST input file heading:
     FAST Certification Test #25: NREL 5.0 MW Baseline Wind Turbine with OC4-DeepCwind semi
     configuration, for use in offshore analysis

 Running ElastoDyn.
 Nodal outputs section of ElastoDyn input file not found or improperly formatted.
 Running AeroDyn.
 AD15 Nodal Outputs: Nodal output section of AeroDyn input file not found or improperly formatted.
 Skipping nodal outputs.
 Warning: Turning off Unsteady Aerodynamics because UA parameters are not included in airfoil
 (airfoil has likely has constant polars). (node 1, blade 1)
 Warning: Turning off Unsteady Aerodynamics because UA parameters are not included in airfoil
 (airfoil has likely has constant polars). (node 2, blade 1)
 Warning: Turning off Unsteady Aerodynamics because UA parameters are not included in airfoil
 (airfoil has likely has constant polars). (node 3, blade 1)
 Warning: Turning off Unsteady Aerodynamics because UA parameters are not included in airfoil
 (airfoil has likely has constant polars). (node 4, blade 1)
 Warning: Turning off Unsteady Aerodynamics because UA parameters are not included in airfoil
 (airfoil has likely has constant polars). (node 1, blade 2)
 Warning: Turning off Unsteady Aerodynamics because UA parameters are not included in airfoil
 (airfoil has likely has constant polars). (node 2, blade 2)
 Warning: Turning off Unsteady Aerodynamics because UA parameters are not included in airfoil
 (airfoil has likely has constant polars). (node 3, blade 2)
 Warning: Turning off Unsteady Aerodynamics because UA parameters are not included in airfoil
 (airfoil has likely has constant polars). (node 4, blade 2)
 Warning: Turning off Unsteady Aerodynamics because UA parameters are not included in airfoil
 (airfoil has likely has constant polars). (node 1, blade 3)
 Warning: Turning off Unsteady Aerodynamics because UA parameters are not included in airfoil
 (airfoil has likely has constant polars). (node 2, blade 3)
 Warning: Turning off Unsteady Aerodynamics because UA parameters are not included in airfoil
 (airfoil has likely has constant polars). (node 3, blade 3)
 Warning: Turning off Unsteady Aerodynamics because UA parameters are not included in airfoil
 (airfoil has likely has constant polars). (node 4, blade 3)
 Running InflowWind.
 Running HydroDyn.
  Generating incident wave kinematics and current time history.
  Reading in WAMIT output with root name
  "/Users/aplatt/software-development/GitHub/openfast-5/build/reg_tests/glue-codes/openfast/5MW_OC4
  Semi_WSt_WavesWN/../5MW_Baseline/HydroData/marin_semi".
  Computing radiation impulse response functions and wave diffraction forces.
  Calculating second order difference-frequency force using the full quadratic transfer function.
  Calculating second order sum-frequency force using the full quadratic transfer function.
 Running MoorDyn (v2.a27, 2022-07-20).
    This is an alpha version of MoorDyn-F v2, with significant input file changes from v1.
    Copyright: (C) 2021 National Renewable Energy Laboratory, (C) 2019 Matt Hall
    Parsing MoorDyn input file:
    /Users/aplatt/software-development/GitHub/openfast-5/build/reg_tests/glue-codes/openfast/5MW_OC
    4Semi_WSt_WavesWN/NRELOffshrBsline5MW_OC4DeepCwindSemi_MoorDyn.dat
   Created mooring system:  3 lines, 6 points, 0 rods, 0 bodies.
    Finalizing initial conditions using dynamic relaxation.

   t=2  FairTen 1: 8.67047E+05, 1, 2                                                                 t=4  FairTen 1: 9.76410E+05, 8.67047E+05, 1                                                       t=6  FairTen 1: 1.02465E+06, 9.76410E+05, 8.67047E+05                                             t=8  FairTen 1: 9.87921E+05, 1.02465E+06, 9.76410E+05                                             t=10  FairTen 1: 1.00205E+06, 9.87921E+05, 1.02465E+06                                            t=12  FairTen 1: 1.00744E+06, 1.00205E+06, 9.87921E+05                                            t=14  FairTen 1: 1.00105E+06, 1.00744E+06, 1.00205E+06                                            t=16  FairTen 1: 9.84904E+05, 1.00105E+06, 1.00744E+06                                            t=18  FairTen 1: 1.02081E+06, 9.84904E+05, 1.00105E+06                                            t=20  FairTen 1: 9.98939E+05, 1.02081E+06, 9.84904E+05                                            t=22  FairTen 1: 9.90994E+05, 9.98939E+05, 1.02081E+06                                            t=24  FairTen 1: 1.00537E+06, 9.90994E+05, 9.98939E+05                                            t=26  FairTen 1: 1.00102E+06, 1.00537E+06, 9.90994E+05                                            t=28  FairTen 1: 1.00011E+06, 1.00102E+06, 1.00537E+06                                            t=30  FairTen 1: 9.99080E+05, 1.00011E+06, 1.00102E+06                                            t=32  FairTen 1: 1.00605E+06, 9.99080E+05, 1.00011E+06                                            t=34  FairTen 1: 9.93077E+05, 1.00605E+06, 9.99080E+05                                            t=36  FairTen 1: 1.00215E+06, 9.93077E+05, 1.00605E+06                                            t=38  FairTen 1: 1.00483E+06, 1.00215E+06, 9.93077E+05                                            t=40  FairTen 1: 9.96028E+05, 1.00483E+06, 1.00215E+06                                            t=42  FairTen 1: 1.00005E+06, 9.96028E+05, 1.00483E+06                                            t=44  FairTen 1: 1.00083E+06, 1.00005E+06, 9.96028E+05                                            t=46  FairTen 1: 1.00198E+06, 1.00083E+06, 1.00005E+06                                            t=48  FairTen 1: 9.96932E+05, 1.00198E+06, 1.00083E+06                                            t=50  FairTen 1: 1.00376E+06, 9.96932E+05, 1.00198E+06                                            t=52  FairTen 1: 9.99020E+05, 1.00376E+06, 9.96932E+05                                             Fairlead tensions converged to 1% after 52 seconds.
    MoorDyn initialization completed.
 Running ServoDyn.
 Running ServoDyn Interface for Bladed Controllers (using GNU Fortran for Linux).
 Using legacy Bladed DLL interface.

 FAST_InitializeAll:HydroDyn_Init:Waves_Init:VariousWaves_Init: The random number generator in use
 differs from the original code provided by NREL. This pRNG uses 8 seeds instead of the 2 in the
 HydroDyn input file.

  Time: 0 of 60 seconds.
                                                                                                   Time: 1 of 60 seconds.  Estimated final completion at 14:29:06.                                                                                                                                     Time: 2 of 60 seconds.  Estimated final completion at 14:28:12.                                                                                                                                     Time: 3 of 60 seconds.  Estimated final completion at 14:27:55.                                                                                                                                     Time: 4 of 60 seconds.  Estimated final completion at 14:27:58.                                                                                                                                     Time: 5 of 60 seconds.  Estimated final completion at 14:27:50.                                                                                                                                     Time: 6 of 60 seconds.  Estimated final completion at 14:27:60.                                                                                                                                     Time: 7 of 60 seconds.  Estimated final completion at 14:27:47.                                                                                                                                     Time: 8 of 60 seconds.  Estimated final completion at 14:28:12.                                                                                                                                     Time: 9 of 60 seconds.  Estimated final completion at 14:29:06.                                                                                                                                     Time: 10 of 60 seconds.  Estimated final completion at 14:29:15.                                                                                                                                    Time: 11 of 60 seconds.  Estimated final completion at 14:30:36.                                                                                                                                    Time: 12 of 60 seconds.  Estimated final completion at 14:30:23.                                                                                                                                    Time: 13 of 60 seconds.  Estimated final completion at 14:28:52.                                                                                                                                    Time: 14 of 60 seconds.  Estimated final completion at 14:30:28.                                                                                                                                    Time: 15 of 60 seconds.  Estimated final completion at 14:35:37.                                                                                                                                    Time: 16 of 60 seconds.  Estimated final completion at 14:35:55.                                                                                                                                    Time: 17 of 60 seconds.  Estimated final completion at 14:43:18.                                                                                                                                    Time: 18 of 60 seconds.  Estimated final completion at 14:35:13.                                                                                                                                    Time: 19 of 60 seconds.  Estimated final completion at 14:33:06.                                                                                                                                    Time: 20 of 60 seconds.  Estimated final completion at 14:30:53.                                                                                                                                    Time: 21 of 60 seconds.  Estimated final completion at 14:34:25.                                                                                                                                    Time: 22 of 60 seconds.  Estimated final completion at 14:38:08.                                                                                                                                    Time: 23 of 60 seconds.  Estimated final completion at 14:41:02.                                                                                                                                    Time: 24 of 60 seconds.  Estimated final completion at 14:43:47.                                                                                                                                    Time: 25 of 60 seconds.  Estimated final completion at 14:42:42.                                                                                                                                    Time: 26 of 60 seconds.  Estimated final completion at 14:44:42.                                                                                                                                    Time: 27 of 60 seconds.  Estimated final completion at 14:40:54.                                                                                                                                    Time: 28 of 60 seconds.  Estimated final completion at 14:41:51.                                                                                                                                    Time: 29 of 60 seconds.  Estimated final completion at 14:42:13.                                                                                                                                    Time: 30 of 60 seconds.  Estimated final completion at 14:41:32.                                                                                                                                    Time: 31 of 60 seconds.  Estimated final completion at 14:37:36.                                                                                                                                    Time: 32 of 60 seconds.  Estimated final completion at 14:34:55.                                                                                                                                    Time: 33 of 60 seconds.  Estimated final completion at 14:35:13.                                                                                                                                    Time: 34 of 60 seconds.  Estimated final completion at 14:37:33.                                                                                                                                    Time: 35 of 60 seconds.  Estimated final completion at 14:37:31.                                                                                                                                    Time: 36 of 60 seconds.  Estimated final completion at 14:35:13.                                                                                                                                    Time: 37 of 60 seconds.  Estimated final completion at 14:35:58.                                                                                                                                    Time: 38 of 60 seconds.  Estimated final completion at 14:35:13.                                                                                                                                    Time: 39 of 60 seconds.  Estimated final completion at 14:34:50.                                                                                                                                    Time: 40 of 60 seconds.  Estimated final completion at 14:34:42.                                                                                                                                    Time: 41 of 60 seconds.  Estimated final completion at 14:34:25.                                                                                                                                    Time: 42 of 60 seconds.  Estimated final completion at 14:34:19.                                                                                                                                    Time: 43 of 60 seconds.  Estimated final completion at 14:34:19.                                                                                                                                    Time: 44 of 60 seconds.  Estimated final completion at 14:34:20.                                                                                                                                    Time: 45 of 60 seconds.  Estimated final completion at 14:34:20.                                                                                                                                    Time: 46 of 60 seconds.  Estimated final completion at 14:34:27.                                                                                                                                    Time: 47 of 60 seconds.  Estimated final completion at 14:34:38.                                                                                                                                    Time: 48 of 60 seconds.  Estimated final completion at 14:34:51.                                                                                                                                    Time: 49 of 60 seconds.  Estimated final completion at 14:34:51.                                                                                                                                    Time: 50 of 60 seconds.  Estimated final completion at 14:34:51.                                                                                                                                    Time: 51 of 60 seconds.  Estimated final completion at 14:34:38.                                                                                                                                    Time: 52 of 60 seconds.  Estimated final completion at 14:34:28.                                                                                                                                    Time: 53 of 60 seconds.  Estimated final completion at 14:34:29.                                                                                                                                    Time: 54 of 60 seconds.  Estimated final completion at 14:34:34.                                                                                                                                    Time: 55 of 60 seconds.  Estimated final completion at 14:34:38.                                                                                                                                    Time: 56 of 60 seconds.  Estimated final completion at 14:34:36.                                                                                                                                    Time: 57 of 60 seconds.  Estimated final completion at 14:34:34.                                                                                                                                    Time: 58 of 60 seconds.  Estimated final completion at 14:34:33.                                                                                                                                    Time: 59 of 60 seconds.  Estimated final completion at 14:34:32.                                                                                                                                    Time: 60 of 60 seconds.  Estimated final completion at 14:34:31.                                                                                                                                   
  Total Real Time:       16.136 minutes
  Total CPU Time:        12.617 minutes
  Simulation CPU Time:   9.5499 minutes
  Simulated Time:        1 minutes
  Time Ratio (Sim/CPU):  0.10471

  OpenFAST terminated normally.

