
 **************************************************************************************************
 OpenFAST (v8.17.01b-dev, 18-Jan-2017)

 Copyright (C) 2017 National Renewable Energy Laboratory

 This program comes with ABSOLUTELY NO WARRANTY. See the "license.txt" file distributed with this
 software for details.
 **************************************************************************************************

  Running OpenFAST (v8.17.01b-dev, 18-Jan-2017), compiled as a 64-bit application using double
  precision
  linked with NWTC Subroutine Library (v2.11.00, 12-Nov-2016)

  Heading of the OpenFAST input file:
    FAST Certification Test #25: NREL 5.0 MW Baseline Wind Turbine with OC4-DeepCwind semi
    configuration, for use in offshore analysis

  Running ElastoDyn (v1.04.00a-bjj, 26-Jul-2016).

  Running AeroDyn (v15.04.01, 13-Dec-2016).

  Running AirfoilInfo (v1.01.00a-bjj, 5-Apr-2016).

  Running BEM (v1.03.00, 29-Oct-2016).
 Warning: Turning off Unsteady Aerodynamics because C_nalpha is 0.  BladeNode = 1, Blade = 1
 Warning: Turning off Unsteady Aerodynamics because C_nalpha is 0.  BladeNode = 2, Blade = 1
 Warning: Turning off Unsteady Aerodynamics because C_nalpha is 0.  BladeNode = 3, Blade = 1
 Warning: Turning off Unsteady Aerodynamics because C_nalpha is 0.  BladeNode = 4, Blade = 1
 Warning: Turning off Unsteady Aerodynamics because C_nalpha is 0.  BladeNode = 1, Blade = 2
 Warning: Turning off Unsteady Aerodynamics because C_nalpha is 0.  BladeNode = 2, Blade = 2
 Warning: Turning off Unsteady Aerodynamics because C_nalpha is 0.  BladeNode = 3, Blade = 2
 Warning: Turning off Unsteady Aerodynamics because C_nalpha is 0.  BladeNode = 4, Blade = 2
 Warning: Turning off Unsteady Aerodynamics because C_nalpha is 0.  BladeNode = 1, Blade = 3
 Warning: Turning off Unsteady Aerodynamics because C_nalpha is 0.  BladeNode = 2, Blade = 3
 Warning: Turning off Unsteady Aerodynamics because C_nalpha is 0.  BladeNode = 3, Blade = 3
 Warning: Turning off Unsteady Aerodynamics because C_nalpha is 0.  BladeNode = 4, Blade = 3

  Running InflowWind (v3.03.00, 26-Jul-2016).
  Opening InflowWind input file:  ./5MW_Baseline/NRELOffshrBsline5MW_InflowWind_Steady8mps.dat

  Running ServoDyn (v1.06.00a-bjj, 26-Jul-2016).

  Running ServoDyn Interface for Bladed Controllers (using Intel Fortran for Linux, 14-Oct-2015).

 FAST_InitializeAll:SrvD_Init:BladedInterface_Init:The dynamic library
 ./5MW_Baseline/ServoData/DISCON_OC3Hywind_win32.dll could not be loaded. Check that the file
 exists in the specified location and that it is compiled for 64-bit applications.

  FAST encountered an error during module initialization.
  Simulation error level: FATAL ERROR

  Aborting OpenFAST.

