
 **************************************************************************************************
 OpenFAST (v8.17.01b-dev, 18-Jan-2017)

 Copyright (C) 2017 National Renewable Energy Laboratory

 This program comes with ABSOLUTELY NO WARRANTY. See the "license.txt" file distributed with this
 software for details.
 **************************************************************************************************

  Running OpenFAST (v8.17.01b-dev, 18-Jan-2017), compiled as a 64-bit application using double
  precision
  linked with NWTC Subroutine Library (v2.11.00, 12-Nov-2016)

  Heading of the OpenFAST input file:
    FAST Certification Test #08: AOC 15/50 with many DOFs with fixed yaw error and steady wind.
    Many parameters are pure fiction.

  Running ElastoDyn (v1.04.00a-bjj, 26-Jul-2016).

  Running AeroDyn (v15.04.01, 13-Dec-2016).

  Running AirfoilInfo (v1.01.00a-bjj, 5-Apr-2016).

  Running BEM (v1.03.00, 29-Oct-2016).

  Running InflowWind (v3.03.00, 26-Jul-2016).
  Opening InflowWind input file:  ./AOC/Test08_InflowWind.dat

  Running ServoDyn (v1.06.00a-bjj, 26-Jul-2016).
  Timestep: 0 of 20 seconds.
 Warning: Turning off Unsteady Aerodynamics due to high angle-of-attack. BladeNode = 1, Blade = 1
 Warning: Turning off Unsteady Aerodynamics due to high angle-of-attack. BladeNode = 2, Blade = 1
 Warning: Turning off Unsteady Aerodynamics due to high angle-of-attack. BladeNode = 3, Blade = 1
 Warning: Turning off Unsteady Aerodynamics due to high angle-of-attack. BladeNode = 1, Blade = 2
 Warning: Turning off Unsteady Aerodynamics due to high angle-of-attack. BladeNode = 2, Blade = 2
 Warning: Turning off Unsteady Aerodynamics due to high angle-of-attack. BladeNode = 1, Blade = 3
 Warning: Turning off Unsteady Aerodynamics due to high angle-of-attack. BladeNode = 2, Blade = 3
 Warning: Turning off Unsteady Aerodynamics due to high angle-of-attack. BladeNode = 3, Blade = 3
 Warning: Turning off Unsteady Aerodynamics due to high angle-of-attack. BladeNode = 3, Blade = 2
+                                                                                                  
+ Timestep: 5 of 20 seconds. Estimated final completion at 13:51:42.
+                                                                                                  
+ Timestep: 10 of 20 seconds. Estimated final completion at 13:51:41.
+                                                                                                  
+ Timestep: 15 of 20 seconds. Estimated final completion at 13:51:41.
+                                                                                                  
+ Timestep: 20 of 20 seconds. Estimated final completion at 13:51:41.
+                                                                                                  

  Total Real Time:       20.358 seconds
  Total CPU Time:        20.284 seconds
  Simulation CPU Time:   20.268 seconds
  Simulated Time:        20 seconds
  Time Ratio (Sim/CPU):  0.98678

  OpenFAST terminated normally.

