
 **************************************************************************************************
 OpenFAST (v8.17.01b-dev, 18-Jan-2017)

 Copyright (C) 2017 National Renewable Energy Laboratory

 This program comes with ABSOLUTELY NO WARRANTY. See the "license.txt" file distributed with this
 software for details.
 **************************************************************************************************

  Running OpenFAST (v8.17.01b-dev, 18-Jan-2017), compiled as a 64-bit application using double
  precision
  linked with NWTC Subroutine Library (v2.11.00, 12-Nov-2016)

  Heading of the OpenFAST input file:
    FAST Certification Test #13: WindPACT 1.5 MW Baseline with many DOFs with VS and VP and FF
    turbulence.

  Running ElastoDyn (v1.04.00a-bjj, 26-Jul-2016).

  Running AeroDyn (v15.04.01, 13-Dec-2016).

  Running AirfoilInfo (v1.01.00a-bjj, 5-Apr-2016).

  Running BEM (v1.03.00, 29-Oct-2016).
 Warning: Turning off Unsteady Aerodynamics because C_nalpha is 0.  BladeNode = 1, Blade = 1
 Warning: Turning off Unsteady Aerodynamics because C_nalpha is 0.  BladeNode = 2, Blade = 1
 Warning: Turning off Unsteady Aerodynamics because C_nalpha is 0.  BladeNode = 1, Blade = 2
 Warning: Turning off Unsteady Aerodynamics because C_nalpha is 0.  BladeNode = 2, Blade = 2
 Warning: Turning off Unsteady Aerodynamics because C_nalpha is 0.  BladeNode = 1, Blade = 3
 Warning: Turning off Unsteady Aerodynamics because C_nalpha is 0.  BladeNode = 2, Blade = 3

  Running InflowWind (v3.03.00, 26-Jul-2016).
  Opening InflowWind input file:  ./WP_Baseline/WP_Baseline_InflowWind_12mps.dat

    Reading a 7x7 grid (84 m wide, 42.288 m to 126.29 m above ground) with a characteristic wind
    speed of 12 m/s.

    Processed 940 time steps of 20-Hz full-field data (46.95 seconds).

  Running ServoDyn (v1.06.00a-bjj, 26-Jul-2016).
  Timestep: 0 of 40 seconds.
+                                                                                                  
+ Timestep: 1 of 40 seconds. Estimated final completion at 13:54:20.
+                                                                                                  
+ Timestep: 2 of 40 seconds. Estimated final completion at 13:54:18.
+                                                                                                  
+ Timestep: 3 of 40 seconds. Estimated final completion at 13:54:20.
+                                                                                                  
+ Timestep: 4 of 40 seconds. Estimated final completion at 13:54:19.

 ***********************************************
 Running with control option using data from:
  Speed controller for ADAMS WindPACT 15A1001 model April, 2002.
 ***********************************************

+                                                                                                  
+ Timestep: 5 of 40 seconds. Estimated final completion at 13:54:18.
+                                                                                                  
+ Timestep: 6 of 40 seconds. Estimated final completion at 13:54:17.
+                                                                                                  
+ Timestep: 7 of 40 seconds. Estimated final completion at 13:54:17.
+                                                                                                  
+ Timestep: 8 of 40 seconds. Estimated final completion at 13:54:17.
+                                                                                                  
+ Timestep: 9 of 40 seconds. Estimated final completion at 13:54:17.
+                                                                                                  
+ Timestep: 10 of 40 seconds. Estimated final completion at 13:54:17.
+                                                                                                  
+ Timestep: 11 of 40 seconds. Estimated final completion at 13:54:17.
+                                                                                                  
+ Timestep: 12 of 40 seconds. Estimated final completion at 13:54:17.
+                                                                                                  
+ Timestep: 13 of 40 seconds. Estimated final completion at 13:54:17.
+                                                                                                  
+ Timestep: 14 of 40 seconds. Estimated final completion at 13:54:17.
+                                                                                                  
+ Timestep: 15 of 40 seconds. Estimated final completion at 13:54:17.
+                                                                                                  
+ Timestep: 16 of 40 seconds. Estimated final completion at 13:54:17.
+                                                                                                  
+ Timestep: 17 of 40 seconds. Estimated final completion at 13:54:17.
+                                                                                                  
+ Timestep: 18 of 40 seconds. Estimated final completion at 13:54:17.
+                                                                                                  
+ Timestep: 19 of 40 seconds. Estimated final completion at 13:54:19.
+                                                                                                  
+ Timestep: 20 of 40 seconds. Estimated final completion at 13:54:18.
+                                                                                                  
+ Timestep: 21 of 40 seconds. Estimated final completion at 13:54:18.
+                                                                                                  
+ Timestep: 22 of 40 seconds. Estimated final completion at 13:54:17.
+                                                                                                  
+ Timestep: 23 of 40 seconds. Estimated final completion at 13:54:17.
+                                                                                                  
+ Timestep: 24 of 40 seconds. Estimated final completion at 13:54:17.
+                                                                                                  
+ Timestep: 25 of 40 seconds. Estimated final completion at 13:54:17.
+                                                                                                  
+ Timestep: 26 of 40 seconds. Estimated final completion at 13:54:18.
+                                                                                                  
+ Timestep: 27 of 40 seconds. Estimated final completion at 13:54:18.
+                                                                                                  
+ Timestep: 28 of 40 seconds. Estimated final completion at 13:54:18.
+                                                                                                  
+ Timestep: 29 of 40 seconds. Estimated final completion at 13:54:17.
+                                                                                                  
+ Timestep: 30 of 40 seconds. Estimated final completion at 13:54:17.
+                                                                                                  
+ Timestep: 31 of 40 seconds. Estimated final completion at 13:54:18.
+                                                                                                  
+ Timestep: 32 of 40 seconds. Estimated final completion at 13:54:17.
+                                                                                                  
+ Timestep: 33 of 40 seconds. Estimated final completion at 13:54:17.
+                                                                                                  
+ Timestep: 34 of 40 seconds. Estimated final completion at 13:54:17.
+                                                                                                  
+ Timestep: 35 of 40 seconds. Estimated final completion at 13:54:17.
+                                                                                                  
+ Timestep: 36 of 40 seconds. Estimated final completion at 13:54:17.
+                                                                                                  
+ Timestep: 37 of 40 seconds. Estimated final completion at 13:54:17.
+                                                                                                  
+ Timestep: 38 of 40 seconds. Estimated final completion at 13:54:17.
+                                                                                                  
+ Timestep: 39 of 40 seconds. Estimated final completion at 13:54:17.
+                                                                                                  
+ Timestep: 40 of 40 seconds. Estimated final completion at 13:54:17.
+                                                                                                  

  Total Real Time:       44.221 seconds
  Total CPU Time:        44.112 seconds
  Simulation CPU Time:   44.08 seconds
  Simulated Time:        40 seconds
  Time Ratio (Sim/CPU):  0.90743

  OpenFAST terminated normally.

