
 **************************************************************************************************
 OpenFAST (v8.17.01b-dev, 18-Jan-2017)

 Copyright (C) 2017 National Renewable Energy Laboratory

 This program comes with ABSOLUTELY NO WARRANTY. See the "license.txt" file distributed with this
 software for details.
 **************************************************************************************************

  Running OpenFAST (v8.17.01b-dev, 18-Jan-2017), compiled as a 64-bit application using double
  precision
  linked with NWTC Subroutine Library (v2.11.00, 12-Nov-2016)

  Heading of the OpenFAST input file:
    FAST Certification Test #10: UAE Phase VI (upwind) with no DOFs in a ramped wind.

  Running ElastoDyn (v1.04.00a-bjj, 26-Jul-2016).

  Running AeroDyn (v15.04.01, 13-Dec-2016).

  Running AirfoilInfo (v1.01.00a-bjj, 5-Apr-2016).

  Running BEM (v1.03.00, 29-Oct-2016).

  Running InflowWind (v3.03.00, 26-Jul-2016).
  Opening InflowWind input file:  ./UAE_VI/Test10_InflowWind.dat
    Processed 4 records of uniform wind data from './UAE_VI/Wind/PwrCrv.wnd'

  Running ServoDyn (v1.06.00a-bjj, 26-Jul-2016).
  Timestep: 0 of 25 seconds.
+                                                                                                  
+ Timestep: 1 of 25 seconds. Estimated final completion at 13:53:03.
+                                                                                                  
+ Timestep: 2 of 25 seconds. Estimated final completion at 13:53:03.
+                                                                                                  
+ Timestep: 3 of 25 seconds. Estimated final completion at 13:53:03.
+                                                                                                  
+ Timestep: 4 of 25 seconds. Estimated final completion at 13:53:05.
+                                                                                                  
+ Timestep: 5 of 25 seconds. Estimated final completion at 13:53:03.
+                                                                                                  
+ Timestep: 6 of 25 seconds. Estimated final completion at 13:53:03.
+                                                                                                  
+ Timestep: 7 of 25 seconds. Estimated final completion at 13:53:03.
+                                                                                                  
+ Timestep: 8 of 25 seconds. Estimated final completion at 13:53:03.
+                                                                                                  
+ Timestep: 9 of 25 seconds. Estimated final completion at 13:53:03.
+                                                                                                  
+ Timestep: 10 of 25 seconds. Estimated final completion at 13:53:04.
+                                                                                                  
+ Timestep: 11 of 25 seconds. Estimated final completion at 13:53:04.
+                                                                                                  
+ Timestep: 12 of 25 seconds. Estimated final completion at 13:53:04.
+                                                                                                  
+ Timestep: 13 of 25 seconds. Estimated final completion at 13:53:03.
+                                                                                                  
+ Timestep: 14 of 25 seconds. Estimated final completion at 13:53:03.
+                                                                                                  
+ Timestep: 15 of 25 seconds. Estimated final completion at 13:53:03.
+                                                                                                  
+ Timestep: 16 of 25 seconds. Estimated final completion at 13:53:03.
+                                                                                                  
+ Timestep: 17 of 25 seconds. Estimated final completion at 13:53:04.
+                                                                                                  
+ Timestep: 18 of 25 seconds. Estimated final completion at 13:53:04.
+                                                                                                  
+ Timestep: 19 of 25 seconds. Estimated final completion at 13:53:03.
+                                                                                                  
+ Timestep: 20 of 25 seconds. Estimated final completion at 13:53:03.
+                                                                                                  
+ Timestep: 21 of 25 seconds. Estimated final completion at 13:53:03.
+                                                                                                  
+ Timestep: 22 of 25 seconds. Estimated final completion at 13:53:03.
+                                                                                                  
+ Timestep: 23 of 25 seconds. Estimated final completion at 13:53:04.
+                                                                                                  
+ Timestep: 24 of 25 seconds. Estimated final completion at 13:53:03.
+                                                                                                  
+ Timestep: 25 of 25 seconds. Estimated final completion at 13:53:03.
+                                                                                                  

  Total Real Time:       31.915 seconds
  Total CPU Time:        31.831 seconds
  Simulation CPU Time:   31.805 seconds
  Simulated Time:        25 seconds
  Time Ratio (Sim/CPU):  0.78604

  OpenFAST terminated normally.

