
 **************************************************************************************************
 OpenFAST (v8.17.01b-dev, 18-Jan-2017)

 Copyright (C) 2017 National Renewable Energy Laboratory

 This program comes with ABSOLUTELY NO WARRANTY. See the "license.txt" file distributed with this
 software for details.
 **************************************************************************************************

  Running OpenFAST (v8.17.01b-dev, 18-Jan-2017), compiled as a 64-bit application using double
  precision
  linked with NWTC Subroutine Library (v2.11.00, 12-Nov-2016)

  Heading of the OpenFAST input file:
    FAST Certification Test #15: SWRT 3-bladed upwind turbine with many DOFs, variable speed
    control, free yaw, tail-furl, EOG01 event

  Running ElastoDyn (v1.04.00a-bjj, 26-Jul-2016).

  Running AeroDyn (v15.04.01, 13-Dec-2016).

  Running AirfoilInfo (v1.01.00a-bjj, 5-Apr-2016).

  Running BEM (v1.03.00, 29-Oct-2016).

  Running InflowWind (v3.03.00, 26-Jul-2016).
  Opening InflowWind input file:  ./SWRT/Test15_InflowWind.dat
    Processed 1053 records of uniform wind data from './SWRT/Wind/EOG_01_R.wnd'

  Running ServoDyn (v1.06.00a-bjj, 26-Jul-2016).
  Timestep: 0 of 20 seconds.

  Using variable speed generator option.
    RPM and Torque (Nm) for SWRT rotor mod by CH Aug 9, 2004 with new test data.  See Config B
    Torque vs RPM.xls

 Warning: Turning off Unsteady Aerodynamics due to high angle-of-attack. BladeNode = 1, Blade = 1
 Warning: Turning off Unsteady Aerodynamics due to high angle-of-attack. BladeNode = 1, Blade = 3
 Warning: Turning off Unsteady Aerodynamics due to high angle-of-attack. BladeNode = 2, Blade = 3
 Warning: Turning off Unsteady Aerodynamics due to high angle-of-attack. BladeNode = 1, Blade = 2
 Warning: Turning off Unsteady Aerodynamics due to high angle-of-attack. BladeNode = 2, Blade = 2
 Warning: Turning off Unsteady Aerodynamics due to high angle-of-attack. BladeNode = 2, Blade = 1
+                                                                                                  
+ Timestep: 1 of 20 seconds. Estimated final completion at 13:56:12.
+                                                                                                  
+ Timestep: 2 of 20 seconds. Estimated final completion at 13:56:12.
+                                                                                                  
+ Timestep: 3 of 20 seconds. Estimated final completion at 13:56:12.
+                                                                                                  
+ Timestep: 4 of 20 seconds. Estimated final completion at 13:56:13.
+                                                                                                  
+ Timestep: 5 of 20 seconds. Estimated final completion at 13:56:13.
+                                                                                                  
+ Timestep: 6 of 20 seconds. Estimated final completion at 13:56:13.
+                                                                                                  
+ Timestep: 7 of 20 seconds. Estimated final completion at 13:56:13.
+                                                                                                  
+ Timestep: 8 of 20 seconds. Estimated final completion at 13:56:14.
+                                                                                                  
+ Timestep: 9 of 20 seconds. Estimated final completion at 13:56:14.
+                                                                                                  
+ Timestep: 10 of 20 seconds. Estimated final completion at 13:56:12.
+                                                                                                  
+ Timestep: 11 of 20 seconds. Estimated final completion at 13:56:13.
 Warning: Turning off Unsteady Aerodynamics due to high angle-of-attack. BladeNode = 3, Blade = 3
 Warning: Turning off Unsteady Aerodynamics due to high angle-of-attack. BladeNode = 3, Blade = 2
 Warning: Turning off Unsteady Aerodynamics due to high angle-of-attack. BladeNode = 3, Blade = 1
+                                                                                                  
+ Timestep: 12 of 20 seconds. Estimated final completion at 13:56:13.
+                                                                                                  
+ Timestep: 13 of 20 seconds. Estimated final completion at 13:56:13.

 FAST_Solution:CalcOutputs_And_SolveForInputs:SolveOption2:AD_CalcOutput:BEMT_CalcOutput(node 17,
 blade 3):Compute_UA_AirfoilCoefs:UA_CalcOutput:Mach number exceeds 0.3. Theory is invalid. This
 warning will not be repeated though the condition may persist.

+                                                                                                  
+ Timestep: 14 of 20 seconds. Estimated final completion at 13:56:12.
+                                                                                                  
+ Timestep: 15 of 20 seconds. Estimated final completion at 13:56:13.
+                                                                                                  
+ Timestep: 16 of 20 seconds. Estimated final completion at 13:56:13.
+                                                                                                  
+ Timestep: 17 of 20 seconds. Estimated final completion at 13:56:13.
+                                                                                                  
+ Timestep: 18 of 20 seconds. Estimated final completion at 13:56:13.
+                                                                                                  
+ Timestep: 19 of 20 seconds. Estimated final completion at 13:56:13.
+                                                                                                  
+ Timestep: 20 of 20 seconds. Estimated final completion at 13:56:13.
+                                                                                                  

  Total Real Time:       1.9183 minutes
  Total CPU Time:        1.9136 minutes
  Simulation CPU Time:   1.9132 minutes
  Simulated Time:        0.33333 minutes
  Time Ratio (Sim/CPU):  0.17423

  OpenFAST terminated normally.

