
 **************************************************************************************************
 OpenFAST (v8.17.01b-dev, 18-Jan-2017)

 Copyright (C) 2017 National Renewable Energy Laboratory

 This program comes with ABSOLUTELY NO WARRANTY. See the "license.txt" file distributed with this
 software for details.
 **************************************************************************************************

  Running OpenFAST (v8.17.01b-dev, 18-Jan-2017), compiled as a 64-bit application using double
  precision
  linked with NWTC Subroutine Library (v2.11.00, 12-Nov-2016)

  Heading of the OpenFAST input file:
    FAST Certification Test #26: NREL 5.0 MW Baseline Wind Turbine (Onshore)

  Running ElastoDyn (v1.04.00a-bjj, 26-Jul-2016).

  Running BeamDyn (v1.02.00, 9-Dec-2016).

  Running BeamDyn (v1.02.00, 9-Dec-2016).

  Running BeamDyn (v1.02.00, 9-Dec-2016).

  Running AeroDyn (v15.04.01, 13-Dec-2016).

  Running AirfoilInfo (v1.01.00a-bjj, 5-Apr-2016).

  Running BEM (v1.03.00, 29-Oct-2016).
 Warning: Turning off Unsteady Aerodynamics because C_nalpha is 0.  BladeNode = 1, Blade = 1
 Warning: Turning off Unsteady Aerodynamics because C_nalpha is 0.  BladeNode = 2, Blade = 1
 Warning: Turning off Unsteady Aerodynamics because C_nalpha is 0.  BladeNode = 3, Blade = 1
 Warning: Turning off Unsteady Aerodynamics because C_nalpha is 0.  BladeNode = 4, Blade = 1
 Warning: Turning off Unsteady Aerodynamics because C_nalpha is 0.  BladeNode = 1, Blade = 2
 Warning: Turning off Unsteady Aerodynamics because C_nalpha is 0.  BladeNode = 2, Blade = 2
 Warning: Turning off Unsteady Aerodynamics because C_nalpha is 0.  BladeNode = 3, Blade = 2
 Warning: Turning off Unsteady Aerodynamics because C_nalpha is 0.  BladeNode = 4, Blade = 2
 Warning: Turning off Unsteady Aerodynamics because C_nalpha is 0.  BladeNode = 1, Blade = 3
 Warning: Turning off Unsteady Aerodynamics because C_nalpha is 0.  BladeNode = 2, Blade = 3
 Warning: Turning off Unsteady Aerodynamics because C_nalpha is 0.  BladeNode = 3, Blade = 3
 Warning: Turning off Unsteady Aerodynamics because C_nalpha is 0.  BladeNode = 4, Blade = 3

  Running InflowWind (v3.03.00, 26-Jul-2016).
  Opening InflowWind input file:  ./5MW_Baseline/NRELOffshrBsline5MW_InflowWind_12mps.dat

    Reading a 31x31 grid (145 m wide, 17.5 m to 162.5 m above ground) with a characteristic wind
    speed of 12 m/s. This full-field file was generated by TurbSim (v1.06.00, 21-Sep-2012) on
    07-Jan-2014 at 12:50:45.

    Processed 1442 time steps of 20-Hz full-field data (72.05 seconds).

  Running ServoDyn (v1.06.00a-bjj, 26-Jul-2016).

  Running ServoDyn Interface for Bladed Controllers (using Intel Fortran for Linux, 14-Oct-2015).
  Timestep: 0 of 20 seconds.

 FAST_Solution0:CalcOutputs_And_SolveForInputs:SolveOption2:SrvD_CalcOutput:Running with torque
 and pitch control of the NREL offshore 5MW baseline wind turbine from DISCON.dll as written by J.
 Jonkman of NREL/NWTC for use in the IEA Annex XXIII OC3 studies.

+                                                                                                  
+ Timestep: 1 of 20 seconds. Estimated final completion at 16:33:25.
+                                                                                                  
+ Timestep: 2 of 20 seconds. Estimated final completion at 16:33:25.
+                                                                                                  
+ Timestep: 3 of 20 seconds. Estimated final completion at 16:33:24.
+                                                                                                  
+ Timestep: 4 of 20 seconds. Estimated final completion at 16:33:26.
+                                                                                                  
+ Timestep: 5 of 20 seconds. Estimated final completion at 16:33:28.
+                                                                                                  
+ Timestep: 6 of 20 seconds. Estimated final completion at 16:33:28.
+                                                                                                  
+ Timestep: 7 of 20 seconds. Estimated final completion at 16:33:28.
+                                                                                                  
+ Timestep: 8 of 20 seconds. Estimated final completion at 16:33:26.
+                                                                                                  
+ Timestep: 9 of 20 seconds. Estimated final completion at 16:33:28.
+                                                                                                  
+ Timestep: 10 of 20 seconds. Estimated final completion at 16:33:25.
+                                                                                                  
+ Timestep: 11 of 20 seconds. Estimated final completion at 16:33:28.
+                                                                                                  
+ Timestep: 12 of 20 seconds. Estimated final completion at 16:33:26.
+                                                                                                  
+ Timestep: 13 of 20 seconds. Estimated final completion at 16:33:27.
+                                                                                                  
+ Timestep: 14 of 20 seconds. Estimated final completion at 16:33:25.
+                                                                                                  
+ Timestep: 15 of 20 seconds. Estimated final completion at 16:33:27.
+                                                                                                  
+ Timestep: 16 of 20 seconds. Estimated final completion at 16:33:27.
+                                                                                                  
+ Timestep: 17 of 20 seconds. Estimated final completion at 16:33:27.
+                                                                                                  
+ Timestep: 18 of 20 seconds. Estimated final completion at 16:33:26.
+                                                                                                  
+ Timestep: 19 of 20 seconds. Estimated final completion at 16:33:26.
+                                                                                                  
+ Timestep: 20 of 20 seconds. Estimated final completion at 16:33:26.
+                                                                                                  

  Total Real Time:       5.1921 minutes
  Total CPU Time:        5.1789 minutes
  Simulation CPU Time:   5.17 minutes
  Simulated Time:        0.33333 minutes
  Time Ratio (Sim/CPU):  6.44741E-02

  OpenFAST terminated normally.

