
 **************************************************************************************************
 OpenFAST

 Copyright (C) 2023 National Renewable Energy Laboratory
 Copyright (C) 2023 Envision Energy USA LTD

 This program is licensed under Apache License Version 2.0 and comes with ABSOLUTELY NO WARRANTY.
 See the "LICENSE" file distributed with this software for details.
 **************************************************************************************************

 OpenFAST-v3.5.0-118-g2774b6c4-dirty
 Compile Info:
  - Compiler: GCC version 10.5.0
  - Architecture: 64 bit
  - Precision: double
  - OpenMP: No
  - Date: Oct 16 2023
  - Time: 11:00:11
 Execution Info:
  - Date: 10/16/2023
  - Time: 11:00:25-0600

 OpenFAST input file heading:
     FAST Certification Test #20: NREL 5.0 MW Baseline Wind Turbine with OC3 Tripod Configuration,
     for use in offshore analysis

 Running ElastoDyn.
 Nodal outputs section of ElastoDyn input file not found or improperly formatted.
 Running AeroDyn.
 AD15 Nodal Outputs: Nodal output section of AeroDyn input file not found or improperly formatted.
 Skipping nodal outputs.
 Warning: Turning off Unsteady Aerodynamics because polar has constant data. (node 1, blade 1)
 Warning: Turning off Unsteady Aerodynamics because polar has constant data. (node 2, blade 1)
 Warning: Turning off Unsteady Aerodynamics because polar has constant data. (node 3, blade 1)
 Warning: Turning off Unsteady Aerodynamics because polar has constant data. (node 4, blade 1)
 Warning: Turning off Unsteady Aerodynamics because polar has constant data. (node 1, blade 2)
 Warning: Turning off Unsteady Aerodynamics because polar has constant data. (node 2, blade 2)
 Warning: Turning off Unsteady Aerodynamics because polar has constant data. (node 3, blade 2)
 Warning: Turning off Unsteady Aerodynamics because polar has constant data. (node 4, blade 2)
 Warning: Turning off Unsteady Aerodynamics because polar has constant data. (node 1, blade 3)
 Warning: Turning off Unsteady Aerodynamics because polar has constant data. (node 2, blade 3)
 Warning: Turning off Unsteady Aerodynamics because polar has constant data. (node 3, blade 3)
 Warning: Turning off Unsteady Aerodynamics because polar has constant data. (node 4, blade 3)
 Running InflowWind.
 Running HydroDyn.
  WARNING:  The requested output channel is invalid: M1N1FAxi
  WARNING:  The requested output channel is invalid: M1N1FAzi
  Generating incident wave kinematics and current time history.
 Running SubDyn.
    Fixed bottom case detected
    Performing Craig-Bampton reduction 948 DOFs -> 12 modes + 6 DOFs
    Using static improvement method for gravity and ext. loads
    SubDyn recommended dt: 0.00782 - Current dt: 0.00800 - Max frequency:    6.396
    Calculating Full System Modes for output files
    Exporting Summary file
 Running ServoDyn.
 Running ServoDyn Interface for Bladed Controllers (using GNU Fortran for Linux).
 Using legacy Bladed DLL interface.

 FAST_InitializeAll:HydroDyn_Init:HydroDynInput_ProcessInitData: A requested output channel is
 invalid
 HydroDyn_Init:Waves_Init:VariousWaves_Init: The random number generator in use differs from the
 original code provided by NREL. This pRNG uses 8 seeds instead of the 2 in the HydroDyn input
 file.

  Time: 0 of 60 seconds.

 FAST_Solution:FAST_AdvanceStates:SrvD_UpdateStates:DLL_controller_call:BladedInterface option was
 designed for an explicit-loose coupling scheme. Using last calculated values from DLL on all
 subsequent calls until time is advanced. Warning will not be displayed again.

                                                                                                   Time: 1 of 60 seconds.  Estimated final completion at 11:17:15.                                                                                                                                     Time: 2 of 60 seconds.  Estimated final completion at 11:10:24.                                                                                                                                     Time: 3 of 60 seconds.  Estimated final completion at 11:09:59.                                                                                                                                     Time: 4 of 60 seconds.  Estimated final completion at 11:10:14.                                                                                                                                     Time: 5 of 60 seconds.  Estimated final completion at 11:10:19.                                                                                                                                     Time: 6 of 60 seconds.  Estimated final completion at 11:10:32.                                                                                                                                     Time: 7 of 60 seconds.  Estimated final completion at 11:12:04.                                                                                                                                     Time: 8 of 60 seconds.  Estimated final completion at 11:15:05.                                                                                                                                     Time: 9 of 60 seconds.  Estimated final completion at 11:15:29.                                                                                                                                     Time: 10 of 60 seconds.  Estimated final completion at 11:11:49.                                                                                                                                    Time: 11 of 60 seconds.  Estimated final completion at 11:11:05.                                                                                                                                    Time: 12 of 60 seconds.  Estimated final completion at 11:10:23.                                                                                                                                    Time: 13 of 60 seconds.  Estimated final completion at 11:10:48.                                                                                                                                    Time: 14 of 60 seconds.  Estimated final completion at 11:11:14.                                                                                                                                    Time: 15 of 60 seconds.  Estimated final completion at 11:11:19.                                                                                                                                    Time: 16 of 60 seconds.  Estimated final completion at 11:11:04.                                                                                                                                    Time: 17 of 60 seconds.  Estimated final completion at 11:11:14.                                                                                                                                    Time: 18 of 60 seconds.  Estimated final completion at 11:11:27.                                                                                                                                    Time: 19 of 60 seconds.  Estimated final completion at 11:11:34.                                                                                                                                    Time: 20 of 60 seconds.  Estimated final completion at 11:11:35.                                                                                                                                    Time: 21 of 60 seconds.  Estimated final completion at 11:11:34.                                                                                                                                    Time: 22 of 60 seconds.  Estimated final completion at 11:11:15.                                                                                                                                    Time: 23 of 60 seconds.  Estimated final completion at 11:11:13.                                                                                                                                    Time: 24 of 60 seconds.  Estimated final completion at 11:11:24.                                                                                                                                    Time: 25 of 60 seconds.  Estimated final completion at 11:11:30.                                                                                                                                    Time: 26 of 60 seconds.  Estimated final completion at 11:11:34.                                                                                                                                    Time: 27 of 60 seconds.  Estimated final completion at 11:19:11.                                                                                                                                    Time: 28 of 60 seconds.  Estimated final completion at 11:20:43.                                                                                                                                    Time: 29 of 60 seconds.  Estimated final completion at 11:19:07.                                                                                                                                    Time: 30 of 60 seconds.  Estimated final completion at 11:12:10.                                                                                                                                    Time: 31 of 60 seconds.  Estimated final completion at 11:11:57.                                                                                                                                    Time: 32 of 60 seconds.  Estimated final completion at 11:11:55.                                                                                                                                    Time: 33 of 60 seconds.  Estimated final completion at 11:11:49.                                                                                                                                    Time: 34 of 60 seconds.  Estimated final completion at 11:11:38.                                                                                                                                    Time: 35 of 60 seconds.  Estimated final completion at 11:11:37.                                                                                                                                    Time: 36 of 60 seconds.  Estimated final completion at 11:11:42.                                                                                                                                    Time: 37 of 60 seconds.  Estimated final completion at 11:11:52.                                                                                                                                    Time: 38 of 60 seconds.  Estimated final completion at 11:12:16.                                                                                                                                    Time: 39 of 60 seconds.  Estimated final completion at 11:12:29.                                                                                                                                    Time: 40 of 60 seconds.  Estimated final completion at 11:12:15.                                                                                                                                    Time: 41 of 60 seconds.  Estimated final completion at 11:12:07.                                                                                                                                    Time: 42 of 60 seconds.  Estimated final completion at 11:12:04.                                                                                                                                    Time: 43 of 60 seconds.  Estimated final completion at 11:12:03.                                                                                                                                    Time: 44 of 60 seconds.  Estimated final completion at 11:12:03.                                                                                                                                    Time: 45 of 60 seconds.  Estimated final completion at 11:12:13.                                                                                                                                    Time: 46 of 60 seconds.  Estimated final completion at 11:12:23.                                                                                                                                    Time: 47 of 60 seconds.  Estimated final completion at 11:12:15.                                                                                                                                    Time: 48 of 60 seconds.  Estimated final completion at 11:12:28.                                                                                                                                    Time: 49 of 60 seconds.  Estimated final completion at 11:11:41.                                                                                                                                    Time: 50 of 60 seconds.  Estimated final completion at 11:11:25.                                                                                                                                    Time: 51 of 60 seconds.  Estimated final completion at 11:11:24.                                                                                                                                    Time: 52 of 60 seconds.  Estimated final completion at 11:11:18.                                                                                                                                    Time: 53 of 60 seconds.  Estimated final completion at 11:11:24.                                                                                                                                    Time: 54 of 60 seconds.  Estimated final completion at 11:11:17.                                                                                                                                    Time: 55 of 60 seconds.  Estimated final completion at 11:11:22.                                                                                                                                    Time: 56 of 60 seconds.  Estimated final completion at 11:11:22.                                                                                                                                    Time: 57 of 60 seconds.  Estimated final completion at 11:11:22.                                                                                                                                    Time: 58 of 60 seconds.  Estimated final completion at 11:11:22.                                                                                                                                    Time: 59 of 60 seconds.  Estimated final completion at 11:11:22.                                                                                                                                    Time: 60 of 60 seconds.  Estimated final completion at 11:11:22.                                                                                                                                   
  Total Real Time:       10.947 minutes
  Total CPU Time:        10.415 minutes
  Simulation CPU Time:   10.052 minutes
  Simulated Time:        1 minutes
  Time Ratio (Sim/CPU):  9.94835E-02

  OpenFAST terminated normally.

