
**************************************************************************************************
OpenFAST

Copyright (C) 2021 National Renewable Energy Laboratory
Copyright (C) 2021 Envision Energy USA LTD

This program is licensed under Apache License Version 2.0 and comes with ABSOLUTELY NO WARRANTY.
See the "LICENSE" file distributed with this software for details.
**************************************************************************************************

OpenFAST-v2.4.0-137-gb5d9a13c
Compile Info:
 - Compiler: Intel(R) Fortran Intel(R) 64 Compiler Classic for applications running on Intel(R)
 64, Version 2021.1 Build 20201112_000000
 - Architecture: 64 bit
 - Precision: double
 - Date: Jan 11 2021
 - Time: 20:21:29
Execution Info:
 - Date: 01/11/2021
 - Time: 20:49:31-0600

OpenFAST input file heading:
    FAST Certification Test #17: SWRT 3-bladed upwind turbine with many DOFs, variable speed
    control, free yaw, tail-furl, FF turbulence

Running ElastoDyn.
Nodal outputs section of ElastoDyn input file not found or improperly formatted.
Running AeroDyn14.
Running InflowWind.

   Reading a 6x6 grid (8 m wide, 30.619 m to 38.619 m above ground) with a characteristic wind
   speed of 16 m/s.

   Processed 1410 time steps of 20-Hz full-field data (70.45 seconds).
Running ServoDyn.
 Time: 0 of 70 seconds.

 Using variable speed generator option.
   RPM and Torque (Nm) for SWRT rotor mod by CH Aug 9, 2004 with new test data.  See Config B
   Torque vs RPM.xls
                                                                                                   Time: 1 of 70 seconds.  Estimated final completion at 20:52:53.                                                                                                   Time: 2 of 70 seconds.  Estimated final completion at 20:52:46.                                                                                                   Time: 3 of 70 seconds.  Estimated final completion at 20:52:50.                                                                                                   Time: 4 of 70 seconds.  Estimated final completion at 20:52:44.                                                                                                   Time: 5 of 70 seconds.  Estimated final completion at 20:52:32.                                                                                                   Time: 6 of 70 seconds.  Estimated final completion at 20:52:17.                                                                                                   Time: 7 of 70 seconds.  Estimated final completion at 20:51:57.                                                                                                   Time: 8 of 70 seconds.  Estimated final completion at 20:51:57.                                                                                                   Time: 9 of 70 seconds.  Estimated final completion at 20:51:59.                                                                                                   Time: 10 of 70 seconds.  Estimated final completion at 20:51:56.                                                                                                   Time: 11 of 70 seconds.  Estimated final completion at 20:52:02.                                                                                                   Time: 12 of 70 seconds.  Estimated final completion at 20:52:05.                                                                                                   Time: 13 of 70 seconds.  Estimated final completion at 20:51:54.                                                                                                   Time: 14 of 70 seconds.  Estimated final completion at 20:51:52.                                                                                                   Time: 15 of 70 seconds.  Estimated final completion at 20:51:51.                                                                                                   Time: 16 of 70 seconds.  Estimated final completion at 20:51:50.                                                                                                   Time: 17 of 70 seconds.  Estimated final completion at 20:51:54.                                                                                                   Time: 18 of 70 seconds.  Estimated final completion at 20:51:53.                                                                                                   Time: 19 of 70 seconds.  Estimated final completion at 20:51:48.                                                                                                   Time: 20 of 70 seconds.  Estimated final completion at 20:51:48.                                                                                                   Time: 21 of 70 seconds.  Estimated final completion at 20:51:50.                                                                                                   Time: 22 of 70 seconds.  Estimated final completion at 20:51:46.                                                                                                   Time: 23 of 70 seconds.  Estimated final completion at 20:51:47.                                                                                                   Time: 24 of 70 seconds.  Estimated final completion at 20:51:46.                                                                                                   Time: 25 of 70 seconds.  Estimated final completion at 20:51:47.                                                                                                   Time: 26 of 70 seconds.  Estimated final completion at 20:51:45.                                                                                                   Time: 27 of 70 seconds.  Estimated final completion at 20:51:47.                                                                                                   Time: 28 of 70 seconds.  Estimated final completion at 20:51:46.                                                                                                   Time: 29 of 70 seconds.  Estimated final completion at 20:51:44.                                                                                                   Time: 30 of 70 seconds.  Estimated final completion at 20:51:46.                                                                                                   Time: 31 of 70 seconds.  Estimated final completion at 20:51:45.                                                                                                   Time: 32 of 70 seconds.  Estimated final completion at 20:51:44.                                                                                                   Time: 33 of 70 seconds.  Estimated final completion at 20:51:45.                                                                                                   Time: 34 of 70 seconds.  Estimated final completion at 20:51:45.                                                                                                   Time: 35 of 70 seconds.  Estimated final completion at 20:51:45.                                                                                                   Time: 36 of 70 seconds.  Estimated final completion at 20:51:46.                                                                                                   Time: 37 of 70 seconds.  Estimated final completion at 20:51:45.                                                                                                   Time: 38 of 70 seconds.  Estimated final completion at 20:51:43.                                                                                                   Time: 39 of 70 seconds.  Estimated final completion at 20:51:41.                                                                                                   Time: 40 of 70 seconds.  Estimated final completion at 20:51:41.                                                                                                   Time: 41 of 70 seconds.  Estimated final completion at 20:51:42.                                                                                                   Time: 42 of 70 seconds.  Estimated final completion at 20:51:42.                                                                                                   Time: 43 of 70 seconds.  Estimated final completion at 20:51:42.                                                                                                   Time: 44 of 70 seconds.  Estimated final completion at 20:51:42.                                                                                                   Time: 45 of 70 seconds.  Estimated final completion at 20:51:42.                                                                                                   Time: 46 of 70 seconds.  Estimated final completion at 20:51:42.                                                                                                   Time: 47 of 70 seconds.  Estimated final completion at 20:51:41.                                                                                                   Time: 48 of 70 seconds.  Estimated final completion at 20:51:43.                                                                                                   Time: 49 of 70 seconds.  Estimated final completion at 20:51:41.                                                                                                   Time: 50 of 70 seconds.  Estimated final completion at 20:51:42.                                                                                                   Time: 51 of 70 seconds.  Estimated final completion at 20:51:42.                                                                                                   Time: 52 of 70 seconds.  Estimated final completion at 20:51:41.                                                                                                   Time: 53 of 70 seconds.  Estimated final completion at 20:51:41.                                                                                                   Time: 54 of 70 seconds.  Estimated final completion at 20:51:42.                                                                                                   Time: 55 of 70 seconds.  Estimated final completion at 20:51:41.                                                                                                   Time: 56 of 70 seconds.  Estimated final completion at 20:51:41.                                                                                                   Time: 57 of 70 seconds.  Estimated final completion at 20:51:41.                                                                                                   Time: 58 of 70 seconds.  Estimated final completion at 20:51:42.                                                                                                   Time: 59 of 70 seconds.  Estimated final completion at 20:51:41.                                                                                                   Time: 60 of 70 seconds.  Estimated final completion at 20:51:41.                                                                                                   Time: 61 of 70 seconds.  Estimated final completion at 20:51:41.                                                                                                   Time: 62 of 70 seconds.  Estimated final completion at 20:51:41.                                                                                                   Time: 63 of 70 seconds.  Estimated final completion at 20:51:41.                                                                                                   Time: 64 of 70 seconds.  Estimated final completion at 20:51:41.                                                                                                   Time: 65 of 70 seconds.  Estimated final completion at 20:51:41.                                                                                                   Time: 66 of 70 seconds.  Estimated final completion at 20:51:41.                                                                                                   Time: 67 of 70 seconds.  Estimated final completion at 20:51:41.                                                                                                   Time: 68 of 70 seconds.  Estimated final completion at 20:51:41.                                                                                                   Time: 69 of 70 seconds.  Estimated final completion at 20:51:41.                                                                                                   Time: 70 of 70 seconds.  Estimated final completion at 20:51:41.                                                                                                  

 Total Real Time:       2.161 minutes
 Total CPU Time:        2.1591 minutes
 Simulation CPU Time:   2.1568 minutes
 Simulated Time:        1.1667 minutes
 Time Ratio (Sim/CPU):  0.54093

 OpenFAST terminated normally.

