
 **************************************************************************************************
 OpenFAST

 Copyright (C) 2024 National Renewable Energy Laboratory
 Copyright (C) 2024 Envision Energy USA LTD

 This program is licensed under Apache License Version 2.0 and comes with ABSOLUTELY NO WARRANTY.
 See the "LICENSE" file distributed with this software for details.
 **************************************************************************************************

 OpenFAST--128-NOTFOUND
 Compile Info:
  - Compiler: GCC version 12.3.0
  - Architecture: 64 bit
  - Precision: double
  - OpenMP: Yes, number of threads: 4/4
  - Date: Sep 18 2024
  - Time: 14:26:14
 Execution Info:
  - Date: 09/18/2024
  - Time: 14:38:45+0000

 OpenFAST input file heading:
     FAST Certification Test #26: NREL 5.0 MW Baseline Wind Turbine (Onshore)

 Running ElastoDyn.
 Nodal outputs section of ElastoDyn input file not found or improperly formatted.
 Running BeamDyn.
 Nodal outputs section of BeamDyn input file not found or improperly formatted.
 Running BeamDyn.
 Nodal outputs section of BeamDyn input file not found or improperly formatted.
 Running BeamDyn.
 Nodal outputs section of BeamDyn input file not found or improperly formatted.
 Running ServoDyn.

 FAST_InitializeAll:FAST_Init:ValidateInputData:LinOutJac can be used only when
 LinInputs=LinOutputs=2.

  Time: 0 of 1.0015 seconds.
                                                                                                   Time: 1 of 1.0015 seconds.  Estimated final completion at 14:38:50.                                                                                                                                 Performing linearization 1 at simulation time 1.0005 s. (RotSpeed=12.1 rpm, BldPitch1=0 deg)     
                                                                                                  
  Total Real Time:       6.791 seconds
  Total CPU Time:        9.0336 seconds
  Simulation CPU Time:   8.1957 seconds
  Simulated Time:        1.002 seconds
  Time Ratio (Sim/CPU):  0.12226

  OpenFAST terminated normally.

