
 **************************************************************************************************
 OpenFAST

 Copyright (C) 2023 National Renewable Energy Laboratory
 Copyright (C) 2023 Envision Energy USA LTD

 This program is licensed under Apache License Version 2.0 and comes with ABSOLUTELY NO WARRANTY.
 See the "LICENSE" file distributed with this software for details.
 **************************************************************************************************

 OpenFAST--128-NOTFOUND
 Compile Info:
  - Compiler: GCC version 12.1.0
  - Architecture: 64 bit
  - Precision: double
  - OpenMP: Yes, number of threads: 2/2
  - Date: Jul 28 2023
  - Time: 14:11:31
 Execution Info:
  - Date: 07/28/2023
  - Time: 14:31:41+0000

 OpenFAST input file heading:
     FAST Certification Test #26: NREL 5.0 MW Baseline Wind Turbine (Onshore)

 Running ElastoDyn.
 Nodal outputs section of ElastoDyn input file not found or improperly formatted.
 Running BeamDyn.
 Running BeamDyn.
 Running BeamDyn.
 Running ServoDyn.

 FAST_InitializeAll:FAST_Init:ValidateInputData:LinOutJac can be used only when
 LinInputs=LinOutputs=2.

  Time: 0 of 5 seconds.
                                                                                                   Performing linearization 1 at simulation time 0 s. (RotSpeed=12.1 rpm, BldPitch1=0 deg)          
                                                                                                   Time: 1 of 5 seconds.  Estimated final completion at 14:35:05.                                                                                                                                      Time: 2 of 5 seconds.  Estimated final completion at 14:33:03.                                                                                                                                      Time: 3 of 5 seconds.  Estimated final completion at 14:33:03.                                                                                                                                      Time: 4 of 5 seconds.  Estimated final completion at 14:33:03.                                                                                                                                     
  Total Real Time:       79.422 seconds
  Total CPU Time:        38.467 seconds
  Simulation CPU Time:   38.21 seconds
  Simulated Time:        5.001 seconds
  Time Ratio (Sim/CPU):  0.13088

  OpenFAST terminated normally.

