
 **************************************************************************************************
 OpenFAST

 Copyright (C) 2021 National Renewable Energy Laboratory
 Copyright (C) 2021 Envision Energy USA LTD

 This program is licensed under Apache License Version 2.0 and comes with ABSOLUTELY NO WARRANTY.
 See the "LICENSE" file distributed with this software for details.
 **************************************************************************************************

 OpenFAST-v2.4.0-138-g9a6c1967
 Compile Info:
  - Compiler: Intel(R) Fortran Intel(R) 64 Compiler Classic for applications running on Intel(R)
  64, Version 2021.1.2 Build 20201208_000000
  - Architecture: 64 bit
  - Precision: double
  - Date: Jan 12 2021
  - Time: 13:31:16
 Execution Info:
  - Date: 01/12/2021
  - Time: 14:12:27-0600

 OpenFAST input file heading:
     MonopileOnly

 Running ElastoDyn.
 Nodal outputs section of ElastoDyn input file not found or improperly formatted.
 Running ExtPtfm_MCKF.

  Time: 0 of 25 seconds.
+                                                                                                  
+ Time: 1 of 25 seconds.  Estimated final completion at 14:12:43.
+                                                                                                  
+ Time: 2 of 25 seconds.  Estimated final completion at 14:12:41.
+                                                                                                  
+ Time: 3 of 25 seconds.  Estimated final completion at 14:12:41.
+                                                                                                  
+ Time: 4 of 25 seconds.  Estimated final completion at 14:12:42.
+                                                                                                  
+ Time: 5 of 25 seconds.  Estimated final completion at 14:12:39.
+                                                                                                  
+ Time: 6 of 25 seconds.  Estimated final completion at 14:12:41.
+                                                                                                  
+ Time: 7 of 25 seconds.  Estimated final completion at 14:12:39.
+                                                                                                  
+ Time: 8 of 25 seconds.  Estimated final completion at 14:12:41.
+                                                                                                  
+ Time: 9 of 25 seconds.  Estimated final completion at 14:12:40.
+                                                                                                  
+ Time: 10 of 25 seconds.  Estimated final completion at 14:12:43.
+                                                                                                  
+ Time: 11 of 25 seconds.  Estimated final completion at 14:12:39.
+                                                                                                  
+ Time: 12 of 25 seconds.  Estimated final completion at 14:12:40.
+                                                                                                  
+ Time: 13 of 25 seconds.  Estimated final completion at 14:12:40.
+                                                                                                  
+ Time: 14 of 25 seconds.  Estimated final completion at 14:12:42.
+                                                                                                  
+ Time: 15 of 25 seconds.  Estimated final completion at 14:12:40.
+                                                                                                  
+ Time: 16 of 25 seconds.  Estimated final completion at 14:12:40.
+                                                                                                  
+ Time: 17 of 25 seconds.  Estimated final completion at 14:12:40.
+                                                                                                  
+ Time: 18 of 25 seconds.  Estimated final completion at 14:12:41.
+                                                                                                  
+ Time: 19 of 25 seconds.  Estimated final completion at 14:12:41.
+                                                                                                  
+ Time: 20 of 25 seconds.  Estimated final completion at 14:12:40.
+                                                                                                  
+ Time: 21 of 25 seconds.  Estimated final completion at 14:12:41.
+                                                                                                  
+ Time: 22 of 25 seconds.  Estimated final completion at 14:12:41.
+                                                                                                  
+ Time: 23 of 25 seconds.  Estimated final completion at 14:12:41.
+                                                                                                  
+ Time: 24 of 25 seconds.  Estimated final completion at 14:12:41.
+                                                                                                  
+ Time: 25 of 25 seconds.  Estimated final completion at 14:12:41.
+                                                                                                  

  Total Real Time:       13.116 seconds
  Total CPU Time:        13.094 seconds
  Simulation CPU Time:   13.016 seconds
  Simulated Time:        25 seconds
  Time Ratio (Sim/CPU):  1.9208

  OpenFAST terminated normally.

