
 **************************************************************************************************
 OpenFAST

 Copyright (C) 2020 National Renewable Energy Laboratory
 Copyright (C) 2020 Envision Energy USA LTD

 This program is licensed under Apache License Version 2.0 and comes with ABSOLUTELY NO WARRANTY.
 See the "LICENSE" file distributed with this software for details.
 **************************************************************************************************

 OpenFAST-v2.4.0-50-g416ff436
 Compile Info:
  - Compiler: GCC version 7.4.0
  - Architecture: 64 bit
  - Precision: double
  - Date: Nov  6 2020
  - Time: 12:35:02
 Execution Info:
  - Date: 11/06/2020
  - Time: 12:35:37-0700

 OpenFAST input file heading:
     FAST Certification Test #19: NREL 5.0 MW Baseline Wind Turbine with OC3 Monopile RF
     Configuration, for use in offshore analysis

 Running ElastoDyn.
 Nodal outputs section of ElastoDyn input file not found or improperly formatted.
 Running AeroDyn.
 Nodal output section of AeroDyn input file not found or improperly formatted.
 Warning: Turning off Unsteady Aerodynamics because C_nalpha is 0. (node 1, blade 1)
 Warning: Turning off Unsteady Aerodynamics because C_nalpha is 0. (node 2, blade 1)
 Warning: Turning off Unsteady Aerodynamics because C_nalpha is 0. (node 3, blade 1)
 Warning: Turning off Unsteady Aerodynamics because C_nalpha is 0. (node 4, blade 1)
 Warning: Turning off Unsteady Aerodynamics because C_nalpha is 0. (node 1, blade 2)
 Warning: Turning off Unsteady Aerodynamics because C_nalpha is 0. (node 2, blade 2)
 Warning: Turning off Unsteady Aerodynamics because C_nalpha is 0. (node 3, blade 2)
 Warning: Turning off Unsteady Aerodynamics because C_nalpha is 0. (node 4, blade 2)
 Warning: Turning off Unsteady Aerodynamics because C_nalpha is 0. (node 1, blade 3)
 Warning: Turning off Unsteady Aerodynamics because C_nalpha is 0. (node 2, blade 3)
 Warning: Turning off Unsteady Aerodynamics because C_nalpha is 0. (node 3, blade 3)
 Warning: Turning off Unsteady Aerodynamics because C_nalpha is 0. (node 4, blade 3)
 Running InflowWind.

    Reading a 31x31 grid (145 m wide, 17.5 m to 162.5 m above ground) with a characteristic wind
    speed of 12 m/s. This full-field file was generated by TurbSim (v1.06.00, 21-Sep-2012) on
    07-Jan-2014 at 12:50:45.

    Processed 1442 time steps of 20-Hz full-field data (72.05 seconds).
 Running ServoDyn.
 Running ServoDyn Interface for Bladed Controllers (using GNU Fortran for Linux, ).
 Using legacy Bladed DLL interface.
 Running HydroDyn.
  Generating incident wave kinematics and current time history.
  Calculating second order difference frequency wave kinematics.
  Calculating second order sum frequency wave kinematics.
 Running SubDyn.
    Calculating Internal Modal Eigenvectors

 FAST_InitializeAll:HydroDyn_Init:Waves_Init:VariousWaves_Init: The random number generator in use
 differs from the original code provided by NREL. This pRNG uses 33 seeds instead of the 2 in the
 HydroDyn input file.

  Time: 0 of 60 seconds.

 FAST_Solution0:CalcOutputs_And_SolveForInputs:SolveOption2:SrvD_CalcOutput:DLL_controller_call:Run
 ning with torque and pitch control of the NREL offshore 5MW baseline wind turbine from DISCON.dll
 as written by J. Jonkman of NREL/NWTC for use in the IEA Annex XXIII OC3 studies.

                                                                                                   Time: 1 of 60 seconds.  Estimated final completion at 12:47:14.                                                                                                                                     Time: 2 of 60 seconds.  Estimated final completion at 12:46:51.                                                                                                                                     Time: 3 of 60 seconds.  Estimated final completion at 12:47:29.                                                                                                                                     Time: 4 of 60 seconds.  Estimated final completion at 12:46:60.                                                                                                                                     Time: 5 of 60 seconds.  Estimated final completion at 12:46:57.                                                                                                                                     Time: 6 of 60 seconds.  Estimated final completion at 12:47:24.                                                                                                                                     Time: 7 of 60 seconds.  Estimated final completion at 12:47:27.                                                                                                                                     Time: 8 of 60 seconds.  Estimated final completion at 12:47:20.                                                                                                                                     Time: 9 of 60 seconds.  Estimated final completion at 12:47:14.                                                                                                                                     Time: 10 of 60 seconds.  Estimated final completion at 12:46:37.                                                                                                                                    Time: 11 of 60 seconds.  Estimated final completion at 12:46:40.                                                                                                                                    Time: 12 of 60 seconds.  Estimated final completion at 12:48:25.                                                                                                                                    Time: 13 of 60 seconds.  Estimated final completion at 12:51:30.                                                                                                                                    Time: 14 of 60 seconds.  Estimated final completion at 12:51:15.                                                                                                                                    Time: 15 of 60 seconds.  Estimated final completion at 12:52:15.                                                                                                                                    Time: 16 of 60 seconds.  Estimated final completion at 12:53:53.                                                                                                                                    Time: 17 of 60 seconds.  Estimated final completion at 12:53:47.                                                                                                                                    Time: 18 of 60 seconds.  Estimated final completion at 12:52:51.                                                                                                                                    Time: 19 of 60 seconds.  Estimated final completion at 12:52:21.                                                                                                                                    Time: 20 of 60 seconds.  Estimated final completion at 12:51:51.                                                                                                                                    Time: 21 of 60 seconds.  Estimated final completion at 12:53:03.                                                                                                                                    Time: 22 of 60 seconds.  Estimated final completion at 12:50:56.                                                                                                                                    Time: 23 of 60 seconds.  Estimated final completion at 12:48:18.                                                                                                                                    Time: 24 of 60 seconds.  Estimated final completion at 12:48:23.                                                                                                                                    Time: 25 of 60 seconds.  Estimated final completion at 12:48:13.                                                                                                                                    Time: 26 of 60 seconds.  Estimated final completion at 12:48:18.                                                                                                                                    Time: 27 of 60 seconds.  Estimated final completion at 12:48:01.                                                                                                                                    Time: 28 of 60 seconds.  Estimated final completion at 12:47:51.                                                                                                                                    Time: 29 of 60 seconds.  Estimated final completion at 12:47:42.                                                                                                                                    Time: 30 of 60 seconds.  Estimated final completion at 12:49:52.                                                                                                                                    Time: 31 of 60 seconds.  Estimated final completion at 12:51:32.                                                                                                                                    Time: 32 of 60 seconds.  Estimated final completion at 12:51:14.                                                                                                                                    Time: 33 of 60 seconds.  Estimated final completion at 12:50:49.                                                                                                                                    Time: 34 of 60 seconds.  Estimated final completion at 12:50:40.                                                                                                                                    Time: 35 of 60 seconds.  Estimated final completion at 12:50:50.                                                                                                                                    Time: 36 of 60 seconds.  Estimated final completion at 12:50:36.                                                                                                                                    Time: 37 of 60 seconds.  Estimated final completion at 12:49:38.                                                                                                                                    Time: 38 of 60 seconds.  Estimated final completion at 12:49:02.                                                                                                                                    Time: 39 of 60 seconds.  Estimated final completion at 12:48:05.                                                                                                                                    Time: 40 of 60 seconds.  Estimated final completion at 12:48:06.                                                                                                                                    Time: 41 of 60 seconds.  Estimated final completion at 12:48:21.                                                                                                                                    Time: 42 of 60 seconds.  Estimated final completion at 12:48:44.                                                                                                                                    Time: 43 of 60 seconds.  Estimated final completion at 12:48:52.                                                                                                                                    Time: 44 of 60 seconds.  Estimated final completion at 12:48:46.                                                                                                                                    Time: 45 of 60 seconds.  Estimated final completion at 12:48:41.                                                                                                                                    Time: 46 of 60 seconds.  Estimated final completion at 12:48:23.                                                                                                                                    Time: 47 of 60 seconds.  Estimated final completion at 12:48:15.                                                                                                                                    Time: 48 of 60 seconds.  Estimated final completion at 12:48:12.                                                                                                                                    Time: 49 of 60 seconds.  Estimated final completion at 12:48:06.                                                                                                                                    Time: 50 of 60 seconds.  Estimated final completion at 12:48:22.                                                                                                                                    Time: 51 of 60 seconds.  Estimated final completion at 12:48:05.                                                                                                                                    Time: 52 of 60 seconds.  Estimated final completion at 12:48:07.                                                                                                                                    Time: 53 of 60 seconds.  Estimated final completion at 12:48:06.                                                                                                                                    Time: 54 of 60 seconds.  Estimated final completion at 12:48:08.                                                                                                                                    Time: 55 of 60 seconds.  Estimated final completion at 12:48:10.                                                                                                                                    Time: 56 of 60 seconds.  Estimated final completion at 12:48:11.                                                                                                                                    Time: 57 of 60 seconds.  Estimated final completion at 12:48:11.                                                                                                                                    Time: 58 of 60 seconds.  Estimated final completion at 12:48:10.                                                                                                                                    Time: 59 of 60 seconds.  Estimated final completion at 12:48:10.                                                                                                                                    Time: 60 of 60 seconds.  Estimated final completion at 12:48:11.                                                                                                                                   
  Total Real Time:       12.548 minutes
  Total CPU Time:        9.7639 minutes
  Simulation CPU Time:   6.1496 minutes
  Simulated Time:        1 minutes
  Time Ratio (Sim/CPU):  0.16261

  OpenFAST terminated normally.

