
 **************************************************************************************************
 OpenFAST

 Copyright (C) 2021 National Renewable Energy Laboratory
 Copyright (C) 2021 Envision Energy USA LTD

 This program is licensed under Apache License Version 2.0 and comes with ABSOLUTELY NO WARRANTY.
 See the "LICENSE" file distributed with this software for details.
 **************************************************************************************************

 OpenFAST-v2.5.0-480-g1082ba16-dirty
 Compile Info:
  - Compiler: GCC version 10.2.0
  - Architecture: 64 bit
  - Precision: double
  - Date: Jan 22 2021
  - Time: 15:11:08
 Execution Info:
  - Date: 01/28/2021
  - Time: 09:48:04-0700

 OpenFAST input file heading:
     FAST Certification Test #19: NREL 5.0 MW Baseline Wind Turbine with OC3 Monopile RF
     Configuration, for use in offshore analysis

 Running ElastoDyn.
 Nodal outputs section of ElastoDyn input file not found or improperly formatted.
 Running AeroDyn.
 AD15 Nodal Outputs: Nodal output section of AeroDyn input file not found or improperly formatted.
 Skipping nodal outputs.
 Warning: Turning off Unsteady Aerodynamics because C_nalpha is 0. (node 1, blade 1)
 Warning: Turning off Unsteady Aerodynamics because C_nalpha is 0. (node 2, blade 1)
 Warning: Turning off Unsteady Aerodynamics because C_nalpha is 0. (node 3, blade 1)
 Warning: Turning off Unsteady Aerodynamics because C_nalpha is 0. (node 4, blade 1)
 Warning: Turning off Unsteady Aerodynamics because C_nalpha is 0. (node 1, blade 2)
 Warning: Turning off Unsteady Aerodynamics because C_nalpha is 0. (node 2, blade 2)
 Warning: Turning off Unsteady Aerodynamics because C_nalpha is 0. (node 3, blade 2)
 Warning: Turning off Unsteady Aerodynamics because C_nalpha is 0. (node 4, blade 2)
 Warning: Turning off Unsteady Aerodynamics because C_nalpha is 0. (node 1, blade 3)
 Warning: Turning off Unsteady Aerodynamics because C_nalpha is 0. (node 2, blade 3)
 Warning: Turning off Unsteady Aerodynamics because C_nalpha is 0. (node 3, blade 3)
 Warning: Turning off Unsteady Aerodynamics because C_nalpha is 0. (node 4, blade 3)
 Running InflowWind.

    Reading a 31x31 grid (145 m wide, 17.5 m to 162.5 m above ground) with a characteristic wind
    speed of 12 m/s. This full-field file was generated by TurbSim (v1.06.00, 21-Sep-2012) on
    07-Jan-2014 at 12:50:45.

    Processed 1442 time steps of 20-Hz full-field data (72.05 seconds).
 Running ServoDyn.
 Running ServoDyn Interface for Bladed Controllers (using GNU Fortran for Linux, ).
 Using legacy Bladed DLL interface.
 Running HydroDyn.
  Generating incident wave kinematics and current time history.
  Calculating second order difference frequency wave kinematics.
  Calculating second order sum frequency wave kinematics.
 Running SubDyn.
    Fixed bottom case detected
    Performing Craig-Bampton reduction 60 DOFs -> 0 modes + 6 DOFs
    Using static improvement method for gravity and ext. loads
    Calculating Full System Modes for summary file

 FAST_InitializeAll:HydroDyn_Init:Waves_Init:VariousWaves_Init: The random number generator in use
 differs from the original code provided by NREL. This pRNG uses 8 seeds instead of the 2 in the
 HydroDyn input file.

  Time: 0 of 60 seconds.
                                                                                                   Time: 1 of 60 seconds.  Estimated final completion at 09:56:49.                                                                                                                                     Time: 2 of 60 seconds.  Estimated final completion at 09:55:58.                                                                                                                                     Time: 3 of 60 seconds.  Estimated final completion at 09:54:48.                                                                                                                                     Time: 4 of 60 seconds.  Estimated final completion at 09:54:49.                                                                                                                                     Time: 5 of 60 seconds.  Estimated final completion at 09:54:43.                                                                                                                                     Time: 6 of 60 seconds.  Estimated final completion at 09:54:39.                                                                                                                                     Time: 7 of 60 seconds.  Estimated final completion at 09:54:48.                                                                                                                                     Time: 8 of 60 seconds.  Estimated final completion at 09:54:32.                                                                                                                                     Time: 9 of 60 seconds.  Estimated final completion at 09:54:29.                                                                                                                                     Time: 10 of 60 seconds.  Estimated final completion at 09:54:34.                                                                                                                                    Time: 11 of 60 seconds.  Estimated final completion at 09:54:48.                                                                                                                                    Time: 12 of 60 seconds.  Estimated final completion at 09:54:53.                                                                                                                                    Time: 13 of 60 seconds.  Estimated final completion at 09:55:15.                                                                                                                                    Time: 14 of 60 seconds.  Estimated final completion at 09:55:21.                                                                                                                                    Time: 15 of 60 seconds.  Estimated final completion at 09:55:20.                                                                                                                                    Time: 16 of 60 seconds.  Estimated final completion at 09:55:15.                                                                                                                                    Time: 17 of 60 seconds.  Estimated final completion at 09:55:11.                                                                                                                                    Time: 18 of 60 seconds.  Estimated final completion at 09:55:08.                                                                                                                                    Time: 19 of 60 seconds.  Estimated final completion at 09:54:53.                                                                                                                                    Time: 20 of 60 seconds.  Estimated final completion at 09:54:46.                                                                                                                                    Time: 21 of 60 seconds.  Estimated final completion at 09:54:46.                                                                                                                                    Time: 22 of 60 seconds.  Estimated final completion at 09:54:39.                                                                                                                                    Time: 23 of 60 seconds.  Estimated final completion at 09:54:41.                                                                                                                                    Time: 24 of 60 seconds.  Estimated final completion at 09:54:36.                                                                                                                                    Time: 25 of 60 seconds.  Estimated final completion at 09:54:38.                                                                                                                                    Time: 26 of 60 seconds.  Estimated final completion at 09:54:36.                                                                                                                                    Time: 27 of 60 seconds.  Estimated final completion at 09:54:30.                                                                                                                                    Time: 28 of 60 seconds.  Estimated final completion at 09:54:29.                                                                                                                                    Time: 29 of 60 seconds.  Estimated final completion at 09:54:30.                                                                                                                                    Time: 30 of 60 seconds.  Estimated final completion at 09:54:33.                                                                                                                                    Time: 31 of 60 seconds.  Estimated final completion at 09:54:33.                                                                                                                                    Time: 32 of 60 seconds.  Estimated final completion at 09:54:38.                                                                                                                                    Time: 33 of 60 seconds.  Estimated final completion at 09:54:40.                                                                                                                                    Time: 34 of 60 seconds.  Estimated final completion at 09:54:40.                                                                                                                                    Time: 35 of 60 seconds.  Estimated final completion at 09:54:44.                                                                                                                                    Time: 36 of 60 seconds.  Estimated final completion at 09:54:46.                                                                                                                                    Time: 37 of 60 seconds.  Estimated final completion at 09:54:48.                                                                                                                                    Time: 38 of 60 seconds.  Estimated final completion at 09:54:50.                                                                                                                                    Time: 39 of 60 seconds.  Estimated final completion at 09:54:50.                                                                                                                                    Time: 40 of 60 seconds.  Estimated final completion at 09:54:47.                                                                                                                                    Time: 41 of 60 seconds.  Estimated final completion at 09:54:43.                                                                                                                                    Time: 42 of 60 seconds.  Estimated final completion at 09:54:41.                                                                                                                                    Time: 43 of 60 seconds.  Estimated final completion at 09:54:41.                                                                                                                                    Time: 44 of 60 seconds.  Estimated final completion at 09:54:41.                                                                                                                                    Time: 45 of 60 seconds.  Estimated final completion at 09:54:42.                                                                                                                                    Time: 46 of 60 seconds.  Estimated final completion at 09:54:42.                                                                                                                                    Time: 47 of 60 seconds.  Estimated final completion at 09:54:41.                                                                                                                                    Time: 48 of 60 seconds.  Estimated final completion at 09:54:43.                                                                                                                                    Time: 49 of 60 seconds.  Estimated final completion at 09:54:43.                                                                                                                                    Time: 50 of 60 seconds.  Estimated final completion at 09:54:46.                                                                                                                                    Time: 51 of 60 seconds.  Estimated final completion at 09:54:46.                                                                                                                                    Time: 52 of 60 seconds.  Estimated final completion at 09:54:48.                                                                                                                                    Time: 53 of 60 seconds.  Estimated final completion at 09:54:48.                                                                                                                                    Time: 54 of 60 seconds.  Estimated final completion at 09:54:47.                                                                                                                                    Time: 55 of 60 seconds.  Estimated final completion at 09:54:46.                                                                                                                                    Time: 56 of 60 seconds.  Estimated final completion at 09:54:45.                                                                                                                                    Time: 57 of 60 seconds.  Estimated final completion at 09:54:46.                                                                                                                                    Time: 58 of 60 seconds.  Estimated final completion at 09:54:45.                                                                                                                                    Time: 59 of 60 seconds.  Estimated final completion at 09:54:45.                                                                                                                                    Time: 60 of 60 seconds.  Estimated final completion at 09:54:45.                                                                                                                                   
  Total Real Time:       6.6813 minutes
  Total CPU Time:        6.5946 minutes
  Simulation CPU Time:   3.3928 minutes
  Simulated Time:        1 minutes
  Time Ratio (Sim/CPU):  0.29475

  OpenFAST terminated normally.

