
 **************************************************************************************************
 OpenFAST

 Copyright (C) 2022 National Renewable Energy Laboratory
 Copyright (C) 2022 Envision Energy USA LTD

 This program is licensed under Apache License Version 2.0 and comes with ABSOLUTELY NO WARRANTY.
 See the "LICENSE" file distributed with this software for details.
 **************************************************************************************************

 OpenFAST-v3.1.0-214-g7fe8bef2
 Compile Info:
  - Compiler: GCC version 10.4.0
  - Architecture: 64 bit
  - Precision: double
  - OpenMP: No
  - Date: Jul  6 2022
  - Time: 11:12:11
 Execution Info:
  - Date: 07/06/2022
  - Time: 11:30:38-0500

 OpenFAST input file heading:
     FAST Certification Test #19: NREL 5.0 MW Baseline Wind Turbine with OC3 Monopile RF
     Configuration, for use in offshore analysis

 Running ElastoDyn.
 Nodal outputs section of ElastoDyn input file not found or improperly formatted.
 Running AeroDyn.
 AD15 Nodal Outputs: Nodal output section of AeroDyn input file not found or improperly formatted.
 Skipping nodal outputs.
 Warning: Turning off Unsteady Aerodynamics because UA parameters are not included in airfoil
 (airfoil has likely has constant polars). (node 1, blade 1)
 Warning: Turning off Unsteady Aerodynamics because UA parameters are not included in airfoil
 (airfoil has likely has constant polars). (node 2, blade 1)
 Warning: Turning off Unsteady Aerodynamics because UA parameters are not included in airfoil
 (airfoil has likely has constant polars). (node 3, blade 1)
 Warning: Turning off Unsteady Aerodynamics because UA parameters are not included in airfoil
 (airfoil has likely has constant polars). (node 4, blade 1)
 Warning: Turning off Unsteady Aerodynamics because UA parameters are not included in airfoil
 (airfoil has likely has constant polars). (node 1, blade 2)
 Warning: Turning off Unsteady Aerodynamics because UA parameters are not included in airfoil
 (airfoil has likely has constant polars). (node 2, blade 2)
 Warning: Turning off Unsteady Aerodynamics because UA parameters are not included in airfoil
 (airfoil has likely has constant polars). (node 3, blade 2)
 Warning: Turning off Unsteady Aerodynamics because UA parameters are not included in airfoil
 (airfoil has likely has constant polars). (node 4, blade 2)
 Warning: Turning off Unsteady Aerodynamics because UA parameters are not included in airfoil
 (airfoil has likely has constant polars). (node 1, blade 3)
 Warning: Turning off Unsteady Aerodynamics because UA parameters are not included in airfoil
 (airfoil has likely has constant polars). (node 2, blade 3)
 Warning: Turning off Unsteady Aerodynamics because UA parameters are not included in airfoil
 (airfoil has likely has constant polars). (node 3, blade 3)
 Warning: Turning off Unsteady Aerodynamics because UA parameters are not included in airfoil
 (airfoil has likely has constant polars). (node 4, blade 3)
 Running InflowWind.

    Reading a 31x31 grid (145 m wide, 17.5 m to 162.5 m above ground) with a characteristic wind
    speed of 12 m/s. This full-field file was generated by TurbSim (v1.06.00, 21-Sep-2012) on
    07-Jan-2014 at 12:50:45.

    Processed 1442 time steps of 20-Hz full-field data (72.05 seconds).
 Running HydroDyn.
  Generating incident wave kinematics and current time history.
  Calculating second order difference frequency wave kinematics.
  Calculating second order sum frequency wave kinematics.
 Running SubDyn.
    Fixed bottom case detected
    Performing Craig-Bampton reduction 60 DOFs -> 0 modes + 6 DOFs
    Using static improvement method for gravity and ext. loads
    Calculating Full System Modes for output files
    Exporting Summary file
 Running ServoDyn.
 Running ServoDyn Interface for Bladed Controllers (using GNU Fortran for Linux, ).
 Using legacy Bladed DLL interface.

 FAST_InitializeAll:HydroDyn_Init:Waves_Init:VariousWaves_Init: The random number generator in use
 differs from the original code provided by NREL. This pRNG uses 8 seeds instead of the 2 in the
 HydroDyn input file.

  Time: 0 of 60 seconds.
                                                                                                   Time: 1 of 60 seconds.  Estimated final completion at 11:35:08.                                                                                                                                     Time: 2 of 60 seconds.  Estimated final completion at 11:35:05.                                                                                                                                     Time: 3 of 60 seconds.  Estimated final completion at 11:35:07.                                                                                                                                     Time: 4 of 60 seconds.  Estimated final completion at 11:34:60.                                                                                                                                     Time: 5 of 60 seconds.  Estimated final completion at 11:34:57.                                                                                                                                     Time: 6 of 60 seconds.  Estimated final completion at 11:35:04.                                                                                                                                     Time: 7 of 60 seconds.  Estimated final completion at 11:35:02.                                                                                                                                     Time: 8 of 60 seconds.  Estimated final completion at 11:35:01.                                                                                                                                     Time: 9 of 60 seconds.  Estimated final completion at 11:34:59.                                                                                                                                     Time: 10 of 60 seconds.  Estimated final completion at 11:34:58.                                                                                                                                    Time: 11 of 60 seconds.  Estimated final completion at 11:34:58.                                                                                                                                    Time: 12 of 60 seconds.  Estimated final completion at 11:34:59.                                                                                                                                    Time: 13 of 60 seconds.  Estimated final completion at 11:35:00.                                                                                                                                    Time: 14 of 60 seconds.  Estimated final completion at 11:34:60.                                                                                                                                    Time: 15 of 60 seconds.  Estimated final completion at 11:34:57.                                                                                                                                    Time: 16 of 60 seconds.  Estimated final completion at 11:34:55.                                                                                                                                    Time: 17 of 60 seconds.  Estimated final completion at 11:34:56.                                                                                                                                    Time: 18 of 60 seconds.  Estimated final completion at 11:34:57.                                                                                                                                    Time: 19 of 60 seconds.  Estimated final completion at 11:34:57.                                                                                                                                    Time: 20 of 60 seconds.  Estimated final completion at 11:35:06.                                                                                                                                    Time: 21 of 60 seconds.  Estimated final completion at 11:35:10.                                                                                                                                    Time: 22 of 60 seconds.  Estimated final completion at 11:35:02.                                                                                                                                    Time: 23 of 60 seconds.  Estimated final completion at 11:35:08.                                                                                                                                    Time: 24 of 60 seconds.  Estimated final completion at 11:35:06.                                                                                                                                    Time: 25 of 60 seconds.  Estimated final completion at 11:35:03.                                                                                                                                    Time: 26 of 60 seconds.  Estimated final completion at 11:35:02.                                                                                                                                    Time: 27 of 60 seconds.  Estimated final completion at 11:35:03.                                                                                                                                    Time: 28 of 60 seconds.  Estimated final completion at 11:35:02.                                                                                                                                    Time: 29 of 60 seconds.  Estimated final completion at 11:34:59.                                                                                                                                    Time: 30 of 60 seconds.  Estimated final completion at 11:34:59.                                                                                                                                    Time: 31 of 60 seconds.  Estimated final completion at 11:35:00.                                                                                                                                    Time: 32 of 60 seconds.  Estimated final completion at 11:35:08.                                                                                                                                    Time: 33 of 60 seconds.  Estimated final completion at 11:35:19.                                                                                                                                    Time: 34 of 60 seconds.  Estimated final completion at 11:35:04.                                                                                                                                    Time: 35 of 60 seconds.  Estimated final completion at 11:35:01.                                                                                                                                    Time: 36 of 60 seconds.  Estimated final completion at 11:35:02.                                                                                                                                    Time: 37 of 60 seconds.  Estimated final completion at 11:35:04.                                                                                                                                    Time: 38 of 60 seconds.  Estimated final completion at 11:35:03.                                                                                                                                    Time: 39 of 60 seconds.  Estimated final completion at 11:35:01.                                                                                                                                    Time: 40 of 60 seconds.  Estimated final completion at 11:35:02.                                                                                                                                    Time: 41 of 60 seconds.  Estimated final completion at 11:35:01.                                                                                                                                    Time: 42 of 60 seconds.  Estimated final completion at 11:35:01.                                                                                                                                    Time: 43 of 60 seconds.  Estimated final completion at 11:35:03.                                                                                                                                    Time: 44 of 60 seconds.  Estimated final completion at 11:35:01.                                                                                                                                    Time: 45 of 60 seconds.  Estimated final completion at 11:35:06.                                                                                                                                    Time: 46 of 60 seconds.  Estimated final completion at 11:35:08.                                                                                                                                    Time: 47 of 60 seconds.  Estimated final completion at 11:35:07.                                                                                                                                    Time: 48 of 60 seconds.  Estimated final completion at 11:35:04.                                                                                                                                    Time: 49 of 60 seconds.  Estimated final completion at 11:35:05.                                                                                                                                    Time: 50 of 60 seconds.  Estimated final completion at 11:35:05.                                                                                                                                    Time: 51 of 60 seconds.  Estimated final completion at 11:35:04.                                                                                                                                    Time: 52 of 60 seconds.  Estimated final completion at 11:35:04.                                                                                                                                    Time: 53 of 60 seconds.  Estimated final completion at 11:35:04.                                                                                                                                    Time: 54 of 60 seconds.  Estimated final completion at 11:35:04.                                                                                                                                    Time: 55 of 60 seconds.  Estimated final completion at 11:35:04.                                                                                                                                    Time: 56 of 60 seconds.  Estimated final completion at 11:35:04.                                                                                                                                    Time: 57 of 60 seconds.  Estimated final completion at 11:35:05.                                                                                                                                    Time: 58 of 60 seconds.  Estimated final completion at 11:35:13.                                                                                                                                    Time: 59 of 60 seconds.  Estimated final completion at 11:35:15.                                                                                                                                    Time: 60 of 60 seconds.  Estimated final completion at 11:35:15.                                                                                                                                   
  Total Real Time:       4.6168 minutes
  Total CPU Time:        4.489 minutes
  Simulation CPU Time:   2.605 minutes
  Simulated Time:        1 minutes
  Time Ratio (Sim/CPU):  0.38388

  OpenFAST terminated normally.

