
This summary information was generated by AeroDyn on 15-Jun-2020 at 13:39:51.

======  General Options  ============================================================================
            3  WakeMod        - Type of wake/induction model: Free Vortex Wake Theory
            1  AFAeroMod      - Type of blade airfoil aerodynamics model: steady
            0  TwrPotent      - Type tower influence on wind based on potential flow around the tower: none
            F  TwrShadow      - Calculate tower influence on wind based on downstream tower shadow? No
            F  TwrAero        - Calculate tower aerodynamic loads? No
======  Outputs  ====================================================================================
            0  NBlOuts        - Number of blade nodes selected for output
            0  NTwOuts        - Number of tower nodes selected for output
               Requested Output Channels:
               Col   Parameter  Units
               ----  ---------  -----
                  0  Time       (s)       
                  1  RtTSR      (-)       
                  2  RtVAvgxh   (m/s)     
                  3  RtVAvgyh   (m/s)     
                  4  RtVAvgzh   (m/s)     
                  5  RtSkew     (deg)     
                  6  RtAeroFxh  (N)       
                  7  RtAeroFyh  (N)       
                  8  RtAeroFzh  (N)       
                  9  RtAeroMxh  (N-m)     
                 10  RtAeroMyh  (N-m)     
                 11  RtAeroMzh  (N-m)     
                 12  RtAeroPwr  (W)       
                 13  RtAeroCp   (-)       
                 14  RtAeroCq   (-)       
                 15  RtAeroCt   (-)       
                 16  B1N9Clrnc  INVALID   
                 17  B1N1Alpha  INVALID   
                 18  B1N1Cl     INVALID   
                 19  B1N1Cd     INVALID   
                 20  B1N1Cm     INVALID   
                 21  B1N1Fl     INVALID   
                 22  B1N1Fd     INVALID   
                 23  B1N1Fn     INVALID   
                 24  B1N1Ft     INVALID   
                 25  B1N1Vrel   INVALID   
                 26  B1N1AxInd  INVALID   
                 27  B1N1Fx     INVALID   
                 28  B1N1Fy     INVALID   
                 29  B1N1Ft     INVALID   
                 30  B1N1Fn     INVALID   
                 31  B1N1Mm     INVALID   
                 32  B1N2Alpha  INVALID   
                 33  B1N2Cl     INVALID   
                 34  B1N2Cd     INVALID   
                 35  B1N2Cm     INVALID   
                 36  B1N2Fl     INVALID   
                 37  B1N2Fd     INVALID   
                 38  B1N2Fn     INVALID   
                 39  B1N2Ft     INVALID   
                 40  B1N2Vrel   INVALID   
                 41  B1N2AxInd  INVALID   
                 42  B1N2Fx     INVALID   
                 43  B1N2Fy     INVALID   
                 44  B1N2Ft     INVALID   
                 45  B1N2Fn     INVALID   
                 46  B1N2Mm     INVALID   
                 47  B1N3Alpha  INVALID   
                 48  B1N3Cl     INVALID   
                 49  B1N3Cd     INVALID   
                 50  B1N3Cm     INVALID   
                 51  B1N3Fl     INVALID   
                 52  B1N3Fd     INVALID   
                 53  B1N3Fn     INVALID   
                 54  B1N3Ft     INVALID   
                 55  B1N3Vrel   INVALID   
                 56  B1N3AxInd  INVALID   
                 57  B1N3Fx     INVALID   
                 58  B1N3Fy     INVALID   
                 59  B1N3Ft     INVALID   
                 60  B1N3Fn     INVALID   
                 61  B1N3Mm     INVALID   
                 62  B1N4Alpha  INVALID   
                 63  B1N4Cl     INVALID   
                 64  B1N4Cd     INVALID   
                 65  B1N4Cm     INVALID   
                 66  B1N4Fl     INVALID   
                 67  B1N4Fd     INVALID   
                 68  B1N4Fn     INVALID   
                 69  B1N4Ft     INVALID   
                 70  B1N4Vrel   INVALID   
                 71  B1N4AxInd  INVALID   
                 72  B1N4Fx     INVALID   
                 73  B1N4Fy     INVALID   
                 74  B1N4Ft     INVALID   
                 75  B1N4Fn     INVALID   
                 76  B1N4Mm     INVALID   
                 77  B1N5Alpha  INVALID   
                 78  B1N5Cl     INVALID   
                 79  B1N5Cd     INVALID   
                 80  B1N5Cm     INVALID   
                 81  B1N5Fl     INVALID   
                 82  B1N5Fd     INVALID   
                 83  B1N5Fn     INVALID   
                 84  B1N5Ft     INVALID   
                 85  B1N5Vrel   INVALID   
                 86  B1N5AxInd  INVALID   
                 87  B1N5Fx     INVALID   
                 88  B1N5Fy     INVALID   
                 89  B1N5Ft     INVALID   
                 90  B1N5Fn     INVALID   
                 91  B1N5Mm     INVALID   
                 92  B1N6Alpha  INVALID   
                 93  B1N6Cl     INVALID   
                 94  B1N6Cd     INVALID   
                 95  B1N6Cm     INVALID   
                 96  B1N6Fl     INVALID   
                 97  B1N6Fd     INVALID   
                 98  B1N6Fn     INVALID   
                 99  B1N6Ft     INVALID   
                100  B1N6Vrel   INVALID   
                101  B1N6AxInd  INVALID   
                102  B1N6Fx     INVALID   
                103  B1N6Fy     INVALID   
                104  B1N6Ft     INVALID   
                105  B1N6Fn     INVALID   
                106  B1N6Mm     INVALID   
                107  B1N7Alpha  INVALID   
                108  B1N7Cl     INVALID   
                109  B1N7Cd     INVALID   
                110  B1N7Cm     INVALID   
                111  B1N7Fl     INVALID   
                112  B1N7Fd     INVALID   
                113  B1N7Fn     INVALID   
                114  B1N7Ft     INVALID   
                115  B1N7Vrel   INVALID   
                116  B1N7AxInd  INVALID   
                117  B1N7Fx     INVALID   
                118  B1N7Fy     INVALID   
                119  B1N7Ft     INVALID   
                120  B1N7Fn     INVALID   
                121  B1N7Mm     INVALID   
                122  B1N8Alpha  INVALID   
                123  B1N8Cl     INVALID   
                124  B1N8Cd     INVALID   
                125  B1N8Cm     INVALID   
                126  B1N8Fl     INVALID   
                127  B1N8Fd     INVALID   
                128  B1N8Fn     INVALID   
                129  B1N8Ft     INVALID   
                130  B1N8Vrel   INVALID   
                131  B1N8AxInd  INVALID   
                132  B1N8Fx     INVALID   
                133  B1N8Fy     INVALID   
                134  B1N8Ft     INVALID   
                135  B1N8Fn     INVALID   
                136  B1N8Mm     INVALID   
                137  B1N9Alpha  INVALID   
                138  B1N9Cl     INVALID   
                139  B1N9Cd     INVALID   
                140  B1N9Cm     INVALID   
                141  B1N9Fl     INVALID   
                142  B1N9Fd     INVALID   
                143  B1N9Fn     INVALID   
                144  B1N9Ft     INVALID   
                145  B1N9Vrel   INVALID   
                146  B1N9AxInd  INVALID   
                147  B1N9Fx     INVALID   
                148  B1N9Fy     INVALID   
                149  B1N9Ft     INVALID   
                150  B1N9Fn     INVALID   
                151  B1N9Mm     INVALID   
