
 **************************************************************************************************
 OpenFAST

 Copyright (C) 2021 National Renewable Energy Laboratory
 Copyright (C) 2021 Envision Energy USA LTD

 This program is licensed under Apache License Version 2.0 and comes with ABSOLUTELY NO WARRANTY.
 See the "LICENSE" file distributed with this software for details.
 **************************************************************************************************

 OpenFAST-v2.5.0-1061-g5512f06f
 Compile Info:
  - Compiler: Intel(R) Fortran Intel(R) 64 Compiler Classic for applications running on Intel(R)
  64, Version 2021.1 Build 20201112_000000
  - Architecture: 64 bit
  - Precision: double
  - OpenMP: No
  - Date: Jun 07 2021
  - Time: 13:10:12
 Execution Info:
  - Date: 06/07/2021
  - Time: 14:14:17-0500

 OpenFAST input file heading:
     Elliptical wing test case for OLAF free vortex wake in AD15

 Running ElastoDyn.
 Nodal outputs section of ElastoDyn input file not found or improperly formatted.
 Running AeroDyn.
 Running FVW.
  - Directory:         /home/raf/Development/openfast/build/reg_tests
  - RootName:
  /home/raf/Development/openfast/build/reg_tests/glue-codes/openfast/EllipticalWing_OLAF/Elliptical
  Wing_OLAF.
  - No OpenMP support
  - Regularization parameters:
    BladeReg (min/max):   0.0010  0.0010
    WakeReg (min/max) :   0.0010  0.0010
    k = alpha delta nu:   0.0018
 Running InflowWind.

 FAST_InitializeAll: IfW_Init:IfW_UniformWind_Init: Could not read upflow column in uniform wind
 files. Assuming upflow is 0.

  Time: 0 of 500 seconds.
+                                                                                                  
+ Time: 100 of 500 seconds.  Estimated final completion at 14:14:18.
+                                                                                                  
+ Time: 200 of 500 seconds.  Estimated final completion at 14:14:18.
+                                                                                                  
+ Time: 300 of 500 seconds.  Estimated final completion at 14:14:18.
+                                                                                                  
+ Time: 400 of 500 seconds.  Estimated final completion at 14:14:18.
+                                                                                                  
+ Time: 500 of 500 seconds.  Estimated final completion at 14:14:18.
+                                                                                                  

  Total Real Time:       6.10000E-02 seconds
  Total CPU Time:        6.18580E-02 seconds
  Simulation CPU Time:   4.46600E-02 seconds
  Simulated Time:        500 seconds
  Time Ratio (Sim/CPU):  11196

  OpenFAST terminated normally.

