
This summary information was generated by ElastoDyn on 22-Mar-2021 at 15:19:35.


Turbine features:

            Upwind, 1-bladed rotor with rigid hub.
            The model has 0 of 18 DOFs active (enabled) at start-up.
 Disabled   Platform horizontal surge translation DOF 
 Disabled   Platform horizontal sway translation DOF 
 Disabled   Platform vertical heave translation DOF 
 Disabled   Platform roll tilt rotation DOF 
 Disabled   Platform pitch tilt rotation DOF 
 Disabled   Platform yaw rotation DOF 
 Disabled   1st tower fore-aft bending mode DOF 
 Disabled   1st tower side-to-side bending mode DOF 
 Disabled   2nd tower fore-aft bending mode DOF 
 Disabled   2nd tower side-to-side bending mode DOF 
 Disabled   Nacelle yaw DOF 
 Disabled   Rotor-furl DOF 
 Disabled   Variable speed generator DOF 
 Disabled   Drivetrain rotational-flexibility DOF 
 Disabled   Tail-furl DOF 
 Disabled   1st flapwise bending-mode DOF of blade 1 
 Disabled   1st edgewise bending-mode DOF of blade 1 
 Disabled   2nd flapwise bending-mode DOF of blade 1 


Time steps:

    Structural            (s)      100.00000000


Some calculated parameters:

    Hub-Height            (m)           100.000
    Flexible Tower Length (m)           100.000
    Flexible Blade Length (m)             5.000


Rotor mass properties:

    Rotor Mass            (kg)            5.000
    Rotor Inertia         (kg-m^2)       41.631
                                        Blade 1
                                        -------
    Mass                  (kg)            5.000
    Second Mass Moment    (kg-m^2)       41.631
    First Mass Moment     (kg-m)         12.500
    Center of Mass        (m)             2.500


Additional mass properties:

    Tower-top Mass        (kg)            5.000
    Tower Mass            (kg)       600000.000
    Platform Mass         (kg)            0.000
    Mass Incl. Platform   (kg)       600005.000


Interpolated tower properties:

Node  TwFract   HNodes  DHNodes  TMassDen    FAStiff    SSStiff
 (-)      (-)      (m)      (m)    (kg/m)     (Nm^2)     (Nm^2)
   1    0.025    2.500    5.000  6000.000  6.000E+11  6.000E+11
   2    0.075    7.500    5.000  6000.000  6.000E+11  6.000E+11
   3    0.125   12.500    5.000  6000.000  6.000E+11  6.000E+11
   4    0.175   17.500    5.000  6000.000  6.000E+11  6.000E+11
   5    0.225   22.500    5.000  6000.000  6.000E+11  6.000E+11
   6    0.275   27.500    5.000  6000.000  6.000E+11  6.000E+11
   7    0.325   32.500    5.000  6000.000  6.000E+11  6.000E+11
   8    0.375   37.500    5.000  6000.000  6.000E+11  6.000E+11
   9    0.425   42.500    5.000  6000.000  6.000E+11  6.000E+11
  10    0.475   47.500    5.000  6000.000  6.000E+11  6.000E+11
  11    0.525   52.500    5.000  6000.000  6.000E+11  6.000E+11
  12    0.575   57.500    5.000  6000.000  6.000E+11  6.000E+11
  13    0.625   62.500    5.000  6000.000  6.000E+11  6.000E+11
  14    0.675   67.500    5.000  6000.000  6.000E+11  6.000E+11
  15    0.725   72.500    5.000  6000.000  6.000E+11  6.000E+11
  16    0.775   77.500    5.000  6000.000  6.000E+11  6.000E+11
  17    0.825   82.500    5.000  6000.000  6.000E+11  6.000E+11
  18    0.875   87.500    5.000  6000.000  6.000E+11  6.000E+11
  19    0.925   92.500    5.000  6000.000  6.000E+11  6.000E+11
  20    0.975   97.500    5.000  6000.000  6.000E+11  6.000E+11


Interpolated blade 1 properties:

Node  BlFract   RNodes  DRNodes PitchAxis  StrcTwst  BMassDen    FlpStff    EdgStff
 (-)      (-)      (m)      (m)       (-)     (deg)    (kg/m)     (Nm^2)     (Nm^2)
   1    0.029    0.147    0.294     0.000    90.000     1.000  1.000E+06  1.000E+06
   2    0.088    0.441    0.294     0.000    90.000     1.000  1.000E+06  1.000E+06
   3    0.147    0.735    0.294     0.000    90.000     1.000  1.000E+06  1.000E+06
   4    0.206    1.029    0.294     0.000    90.000     1.000  1.000E+06  1.000E+06
   5    0.265    1.324    0.294     0.000    90.000     1.000  1.000E+06  1.000E+06
   6    0.324    1.618    0.294     0.000    90.000     1.000  1.000E+06  1.000E+06
   7    0.382    1.912    0.294     0.000    90.000     1.000  1.000E+06  1.000E+06
   8    0.441    2.206    0.294     0.000    90.000     1.000  1.000E+06  1.000E+06
   9    0.500    2.500    0.294     0.000    90.000     1.000  1.000E+06  1.000E+06
  10    0.559    2.794    0.294     0.000    90.000     1.000  1.000E+06  1.000E+06
  11    0.618    3.088    0.294     0.000    90.000     1.000  1.000E+06  1.000E+06
  12    0.676    3.382    0.294     0.000    90.000     1.000  1.000E+06  1.000E+06
  13    0.735    3.676    0.294     0.000    90.000     1.000  1.000E+06  1.000E+06
  14    0.794    3.971    0.294     0.000    90.000     1.000  1.000E+06  1.000E+06
  15    0.853    4.265    0.294     0.000    90.000     1.000  1.000E+06  1.000E+06
  16    0.912    4.559    0.294     0.000    90.000     1.000  1.000E+06  1.000E+06
  17    0.971    4.853    0.294     0.000    90.000     1.000  1.000E+06  1.000E+06


Requested Outputs:


 Col   Parameter            Units               
 ---   ---------------      ---------------     
   0   Time                 (s)                 
   1   OoPDefl1             (m)                 
   2   IPDefl1              (m)                 
   3   TwstDefl1            (deg)               
   4   BldPitch1            (deg)               
   5   Azimuth              (deg)               
   6   RotSpeed             (rpm)               
   7   GenSpeed             (rpm)               
   8   TTDspFA              (m)                 
   9   TTDspSS              (m)                 
  10   TTDspTwst            (deg)               
  11   Spn2MLxb1            (kN-m)              
  12   Spn2MLyb1            (kN-m)              
  13   RootFxb1             (kN)                
  14   RootFyb1             (kN)                
  15   RootFzb1             (kN)                
  16   RootMxb1             (kN-m)              
  17   RootMyb1             (kN-m)              
  18   RootMzb1             (kN-m)              
  19   RootFxb2             INVALID             
  20   RotTorq              (kN-m)              
  21   LSSGagMya            (kN-m)              
  22   LSSGagMza            (kN-m)              
  23   YawBrFxp             (kN)                
  24   YawBrFyp             (kN)                
  25   YawBrFzp             (kN)                
  26   YawBrMxp             (kN-m)              
  27   YawBrMyp             (kN-m)              
  28   YawBrMzp             (kN-m)              
  29   TwrBsFxt             (kN)                
  30   TwrBsFyt             (kN)                
  31   TwrBsFzt             (kN)                
  32   TwrBsMxt             (kN-m)              
  33   TwrBsMyt             (kN-m)              
  34   TwrBsMzt             (kN-m)              


  Requested Output Channels at each blade station:
 Col   Parameter            Units               
 ---   ---------------      ---------------     
