
**************************************************************************************************
OpenFAST

Copyright (C) 2021 National Renewable Energy Laboratory
Copyright (C) 2021 Envision Energy USA LTD

This program is licensed under Apache License Version 2.0 and comes with ABSOLUTELY NO WARRANTY.
See the "LICENSE" file distributed with this software for details.
**************************************************************************************************

OpenFAST-v2.4.0-137-gb5d9a13c
Compile Info:
 - Compiler: Intel(R) Fortran Intel(R) 64 Compiler Classic for applications running on Intel(R)
 64, Version 2021.1 Build 20201112_000000
 - Architecture: 64 bit
 - Precision: double
 - Date: Jan 11 2021
 - Time: 20:21:29
Execution Info:
 - Date: 01/11/2021
 - Time: 20:48:56-0600

OpenFAST input file heading:
    FAST Certification Test #05: AWT-27CR2 with many DOFs with startup and shutdown and FF
    turbulence.

Running ElastoDyn.
Nodal outputs section of ElastoDyn input file not found or improperly formatted.
Running AeroDyn.
Nodal output section of AeroDyn input file not found or improperly formatted.
Running InflowWind.
Running ServoDyn.

FAST_InitializeAll: IfW_Init:IfW_UniformWind_Init: Could not read upflow column in uniform wind
files. Assuming upflow is 0.

 Time: 0 of 30 seconds.
The BEM solution is being turned off due to low TSR.  (TSR = 0). This warning will not be
repeated though the condition may persist. (See GeomPhi output channel.)                                                                                                   Time: 1 of 30 seconds.  Estimated final completion at 20:49:21.                                                                                                   Time: 2 of 30 seconds.  Estimated final completion at 20:49:22.                                                                                                   Time: 3 of 30 seconds.  Estimated final completion at 20:49:20.                                                                                                   Time: 4 of 30 seconds.  Estimated final completion at 20:49:20.                                                                                                   Time: 5 of 30 seconds.  Estimated final completion at 20:49:21.                                                                                                   Time: 6 of 30 seconds.  Estimated final completion at 20:49:20.                                                                                                   Time: 7 of 30 seconds.  Estimated final completion at 20:49:18.                                                                                                   Time: 8 of 30 seconds.  Estimated final completion at 20:49:20.                                                                                                   Time: 9 of 30 seconds.  Estimated final completion at 20:49:20.                                                                                                   Time: 10 of 30 seconds.  Estimated final completion at 20:49:22.                                                                                                   Time: 11 of 30 seconds.  Estimated final completion at 20:49:19.                                                                                                   Time: 12 of 30 seconds.  Estimated final completion at 20:49:19.                                                                                                   Time: 13 of 30 seconds.  Estimated final completion at 20:49:21.                                                                                                   Time: 14 of 30 seconds.  Estimated final completion at 20:49:19.                                                                                                   Time: 15 of 30 seconds.  Estimated final completion at 20:49:21.                                                                                                   Time: 16 of 30 seconds.  Estimated final completion at 20:49:20.                                                                                                   Time: 17 of 30 seconds.  Estimated final completion at 20:49:20.                                                                                                   Time: 18 of 30 seconds.  Estimated final completion at 20:49:20.                                                                                                   Time: 19 of 30 seconds.  Estimated final completion at 20:49:19.                                                                                                   Time: 20 of 30 seconds.  Estimated final completion at 20:49:19.                                                                                                   Time: 21 of 30 seconds.  Estimated final completion at 20:49:20.                                                                                                   Time: 22 of 30 seconds.  Estimated final completion at 20:49:20.                                                                                                   Time: 23 of 30 seconds.  Estimated final completion at 20:49:19.                                                                                                   Time: 24 of 30 seconds.  Estimated final completion at 20:49:19.                                                                                                   Time: 25 of 30 seconds.  Estimated final completion at 20:49:20.                                                                                                   Time: 26 of 30 seconds.  Estimated final completion at 20:49:20.                                                                                                   Time: 27 of 30 seconds.  Estimated final completion at 20:49:20.                                                                                                   Time: 28 of 30 seconds.  Estimated final completion at 20:49:20.                                                                                                   Time: 29 of 30 seconds.  Estimated final completion at 20:49:20.                                                                                                   Time: 30 of 30 seconds.  Estimated final completion at 20:49:20.                                                                                                  

 Total Real Time:       23.035 seconds
 Total CPU Time:        22.875 seconds
 Simulation CPU Time:   22.781 seconds
 Simulated Time:        30.004 seconds
 Time Ratio (Sim/CPU):  1.317

 OpenFAST terminated normally.

