
 **************************************************************************************************
 OpenFAST

 Copyright (C) 2021 National Renewable Energy Laboratory
 Copyright (C) 2021 Envision Energy USA LTD

 This program is licensed under Apache License Version 2.0 and comes with ABSOLUTELY NO WARRANTY.
 See the "LICENSE" file distributed with this software for details.
 **************************************************************************************************

 OpenFAST-v2.5.0-10-gb4fd3acc
 Compile Info:
  - Compiler: GCC version 10.2.0
  - Architecture: 64 bit
  - Precision: double
  - Date: Jan 14 2021
  - Time: 17:19:34
 Execution Info:
  - Date: 01/14/2021
  - Time: 17:42:54-0600

 OpenFAST input file heading:
     MonopileOnly

 Running ElastoDyn.
 Nodal outputs section of ElastoDyn input file not found or improperly formatted.
 Running ExtPtfm_MCKF.

  Time: 0 of 25 seconds.
                                                                                                   Time: 1 of 25 seconds.  Estimated final completion at 17:43:22.                                                                                                                                     Time: 2 of 25 seconds.  Estimated final completion at 17:43:21.                                                                                                                                     Time: 3 of 25 seconds.  Estimated final completion at 17:43:21.                                                                                                                                     Time: 4 of 25 seconds.  Estimated final completion at 17:43:22.                                                                                                                                     Time: 5 of 25 seconds.  Estimated final completion at 17:43:20.                                                                                                                                     Time: 6 of 25 seconds.  Estimated final completion at 17:43:21.                                                                                                                                     Time: 7 of 25 seconds.  Estimated final completion at 17:43:22.                                                                                                                                     Time: 8 of 25 seconds.  Estimated final completion at 17:43:22.                                                                                                                                     Time: 9 of 25 seconds.  Estimated final completion at 17:43:22.                                                                                                                                     Time: 10 of 25 seconds.  Estimated final completion at 17:43:21.                                                                                                                                    Time: 11 of 25 seconds.  Estimated final completion at 17:43:22.                                                                                                                                    Time: 12 of 25 seconds.  Estimated final completion at 17:43:21.                                                                                                                                    Time: 13 of 25 seconds.  Estimated final completion at 17:43:22.                                                                                                                                    Time: 14 of 25 seconds.  Estimated final completion at 17:43:21.                                                                                                                                    Time: 15 of 25 seconds.  Estimated final completion at 17:43:21.                                                                                                                                    Time: 16 of 25 seconds.  Estimated final completion at 17:43:22.                                                                                                                                    Time: 17 of 25 seconds.  Estimated final completion at 17:43:22.                                                                                                                                    Time: 18 of 25 seconds.  Estimated final completion at 17:43:22.                                                                                                                                    Time: 19 of 25 seconds.  Estimated final completion at 17:43:22.                                                                                                                                    Time: 20 of 25 seconds.  Estimated final completion at 17:43:22.                                                                                                                                    Time: 21 of 25 seconds.  Estimated final completion at 17:43:22.                                                                                                                                    Time: 22 of 25 seconds.  Estimated final completion at 17:43:22.                                                                                                                                    Time: 23 of 25 seconds.  Estimated final completion at 17:43:22.                                                                                                                                    Time: 24 of 25 seconds.  Estimated final completion at 17:43:22.                                                                                                                                    Time: 25 of 25 seconds.  Estimated final completion at 17:43:22.                                                                                                                                   
  Total Real Time:       27.702 seconds
  Total CPU Time:        27.453 seconds
  Simulation CPU Time:   27.375 seconds
  Simulated Time:        25 seconds
  Time Ratio (Sim/CPU):  0.91324

  OpenFAST terminated normally.

