
 **************************************************************************************************
 OpenFAST

 Copyright (C) 2021 National Renewable Energy Laboratory
 Copyright (C) 2021 Envision Energy USA LTD

 This program is licensed under Apache License Version 2.0 and comes with ABSOLUTELY NO WARRANTY.
 See the "LICENSE" file distributed with this software for details.
 **************************************************************************************************

 OpenFAST-v2.0.0-1185-g7979169c
 Compile Info:
  - Compiler: Intel(R) Fortran Intel(R) 64 Compiler Classic for applications running on Intel(R)
  64, Version 2021.1.2 Build 20201208_000000
  - Architecture: 64 bit
  - Precision: double
  - Date: Jan 28 2021
  - Time: 13:41:32
 Execution Info:
  - Date: 02/03/2021
  - Time: 16:01:44-0600

 OpenFAST input file heading:
     IEA task 37 RWT turbine -- https://github.com/IEAWindTask37/IEA-3.4-130-RWT

 Running ElastoDyn.
 Nodal outputs section of ElastoDyn input file not found or improperly formatted.
 Running AeroDyn.
 AD15 Nodal Outputs: Nodal output section of AeroDyn input file not found or improperly formatted.
 Skipping nodal outputs.
 Warning: Turning off Unsteady Aerodynamics because C_nalpha is 0. (node 1, blade 1)
 Warning: Turning off Unsteady Aerodynamics because C_nalpha is 0. (node 2, blade 1)
 Warning: Turning off Unsteady Aerodynamics because C_nalpha is 0. (node 1, blade 2)
 Warning: Turning off Unsteady Aerodynamics because C_nalpha is 0. (node 2, blade 2)
 Warning: Turning off Unsteady Aerodynamics because C_nalpha is 0. (node 1, blade 3)
 Warning: Turning off Unsteady Aerodynamics because C_nalpha is 0. (node 2, blade 3)
 Running AeroAcoustics (v1.00.00, 18-Aug-2016).
 AeroAcoustics_IO: reading BL table:/home/rmudafor/pietro/openfast/build_intel/r
 eg_tests/glue-codes/openfast/IEA_LB_RWT-AeroAcoustics/Airfoils/AF00_BL.txt
 AeroAcoustics_IO: reading BL table:/home/rmudafor/pietro/openfast/build_intel/r
 eg_tests/glue-codes/openfast/IEA_LB_RWT-AeroAcoustics/Airfoils/AF01_BL.txt
 AeroAcoustics_IO: reading BL table:/home/rmudafor/pietro/openfast/build_intel/r
 eg_tests/glue-codes/openfast/IEA_LB_RWT-AeroAcoustics/Airfoils/AF02_BL.txt
 AeroAcoustics_IO: reading BL table:/home/rmudafor/pietro/openfast/build_intel/r
 eg_tests/glue-codes/openfast/IEA_LB_RWT-AeroAcoustics/Airfoils/AF03_BL.txt
 AeroAcoustics_IO: reading BL table:/home/rmudafor/pietro/openfast/build_intel/r
 eg_tests/glue-codes/openfast/IEA_LB_RWT-AeroAcoustics/Airfoils/AF04_BL.txt
 AeroAcoustics_IO: reading BL table:/home/rmudafor/pietro/openfast/build_intel/r
 eg_tests/glue-codes/openfast/IEA_LB_RWT-AeroAcoustics/Airfoils/AF05_BL.txt
 AeroAcoustics_IO: reading BL table:/home/rmudafor/pietro/openfast/build_intel/r
 eg_tests/glue-codes/openfast/IEA_LB_RWT-AeroAcoustics/Airfoils/AF06_BL.txt
 AeroAcoustics_IO: reading BL table:/home/rmudafor/pietro/openfast/build_intel/r
 eg_tests/glue-codes/openfast/IEA_LB_RWT-AeroAcoustics/Airfoils/AF07_BL.txt
 AeroAcoustics_IO: reading BL table:/home/rmudafor/pietro/openfast/build_intel/r
 eg_tests/glue-codes/openfast/IEA_LB_RWT-AeroAcoustics/Airfoils/AF08_BL.txt
 AeroAcoustics_IO: reading BL table:/home/rmudafor/pietro/openfast/build_intel/r
 eg_tests/glue-codes/openfast/IEA_LB_RWT-AeroAcoustics/Airfoils/AF09_BL.txt
 AeroAcoustics_IO: reading BL table:/home/rmudafor/pietro/openfast/build_intel/r
 eg_tests/glue-codes/openfast/IEA_LB_RWT-AeroAcoustics/Airfoils/AF10_BL.txt
 AeroAcoustics_IO: reading BL table:/home/rmudafor/pietro/openfast/build_intel/r
 eg_tests/glue-codes/openfast/IEA_LB_RWT-AeroAcoustics/Airfoils/AF11_BL.txt
 AeroAcoustics_IO: reading BL table:/home/rmudafor/pietro/openfast/build_intel/r
 eg_tests/glue-codes/openfast/IEA_LB_RWT-AeroAcoustics/Airfoils/AF12_BL.txt
 AeroAcoustics_IO: reading BL table:/home/rmudafor/pietro/openfast/build_intel/r
 eg_tests/glue-codes/openfast/IEA_LB_RWT-AeroAcoustics/Airfoils/AF13_BL.txt
 AeroAcoustics_IO: reading BL table:/home/rmudafor/pietro/openfast/build_intel/r
 eg_tests/glue-codes/openfast/IEA_LB_RWT-AeroAcoustics/Airfoils/AF14_BL.txt
 AeroAcoustics_IO: reading BL table:/home/rmudafor/pietro/openfast/build_intel/r
 eg_tests/glue-codes/openfast/IEA_LB_RWT-AeroAcoustics/Airfoils/AF15_BL.txt
 AeroAcoustics_IO: reading BL table:/home/rmudafor/pietro/openfast/build_intel/r
 eg_tests/glue-codes/openfast/IEA_LB_RWT-AeroAcoustics/Airfoils/AF16_BL.txt
 AeroAcoustics_IO: reading BL table:/home/rmudafor/pietro/openfast/build_intel/r
 eg_tests/glue-codes/openfast/IEA_LB_RWT-AeroAcoustics/Airfoils/AF17_BL.txt
 AeroAcoustics_IO: reading BL table:/home/rmudafor/pietro/openfast/build_intel/r
 eg_tests/glue-codes/openfast/IEA_LB_RWT-AeroAcoustics/Airfoils/AF18_BL.txt
 AeroAcoustics_IO: reading BL table:/home/rmudafor/pietro/openfast/build_intel/r
 eg_tests/glue-codes/openfast/IEA_LB_RWT-AeroAcoustics/Airfoils/AF19_BL.txt
 AeroAcoustics_IO: reading BL table:/home/rmudafor/pietro/openfast/build_intel/r
 eg_tests/glue-codes/openfast/IEA_LB_RWT-AeroAcoustics/Airfoils/AF20_BL.txt
 AeroAcoustics_IO: reading BL table:/home/rmudafor/pietro/openfast/build_intel/r
 eg_tests/glue-codes/openfast/IEA_LB_RWT-AeroAcoustics/Airfoils/AF21_BL.txt
 AeroAcoustics_IO: reading BL table:/home/rmudafor/pietro/openfast/build_intel/r
 eg_tests/glue-codes/openfast/IEA_LB_RWT-AeroAcoustics/Airfoils/AF22_BL.txt
 AeroAcoustics_IO: reading BL table:/home/rmudafor/pietro/openfast/build_intel/r
 eg_tests/glue-codes/openfast/IEA_LB_RWT-AeroAcoustics/Airfoils/AF23_BL.txt
 AeroAcoustics_IO: reading BL table:/home/rmudafor/pietro/openfast/build_intel/r
 eg_tests/glue-codes/openfast/IEA_LB_RWT-AeroAcoustics/Airfoils/AF24_BL.txt
 AeroAcoustics_IO: reading BL table:/home/rmudafor/pietro/openfast/build_intel/r
 eg_tests/glue-codes/openfast/IEA_LB_RWT-AeroAcoustics/Airfoils/AF25_BL.txt
 AeroAcoustics_IO: reading BL table:/home/rmudafor/pietro/openfast/build_intel/r
 eg_tests/glue-codes/openfast/IEA_LB_RWT-AeroAcoustics/Airfoils/AF26_BL.txt
 AeroAcoustics_IO: reading BL table:/home/rmudafor/pietro/openfast/build_intel/r
 eg_tests/glue-codes/openfast/IEA_LB_RWT-AeroAcoustics/Airfoils/AF27_BL.txt
 AeroAcoustics_IO: reading BL table:/home/rmudafor/pietro/openfast/build_intel/r
 eg_tests/glue-codes/openfast/IEA_LB_RWT-AeroAcoustics/Airfoils/AF28_BL.txt
 AeroAcoustics_IO: reading BL table:/home/rmudafor/pietro/openfast/build_intel/r
 eg_tests/glue-codes/openfast/IEA_LB_RWT-AeroAcoustics/Airfoils/AF29_BL.txt
 Running InflowWind.
  Time: 0 of 20 seconds.
+                                                                                                  
+ Time: 5 of 20 seconds.  Estimated final completion at 16:02:06.
+                                                                                                  
+ Time: 10 of 20 seconds.  Estimated final completion at 16:02:06.
+                                                                                                  
+ Time: 15 of 20 seconds.  Estimated final completion at 16:02:05.
+                                                                                                  
+ Time: 20 of 20 seconds.  Estimated final completion at 16:02:06.
+                                                                                                  

  Total Real Time:       20.865 seconds
  Total CPU Time:        20.812 seconds
  Simulation CPU Time:   20.609 seconds
  Simulated Time:        20 seconds
  Time Ratio (Sim/CPU):  0.97043

  OpenFAST terminated normally.

