
 **************************************************************************************************
 OpenFAST

 Copyright (C) 2021 National Renewable Energy Laboratory
 Copyright (C) 2021 Envision Energy USA LTD

 This program is licensed under Apache License Version 2.0 and comes with ABSOLUTELY NO WARRANTY.
 See the "LICENSE" file distributed with this software for details.
 **************************************************************************************************

 OpenFAST-v1.0.0-1800-g1082ba16
 Compile Info:
  - Compiler: Intel(R) Fortran Intel(R) 64 Compiler Classic for applications running on Intel(R)
  64, Version 2021.1.2 Build 20201208_000000
  - Architecture: 64 bit
  - Precision: double
  - Date: Jan 28 2021
  - Time: 15:57:01
 Execution Info:
  - Date: 01/28/2021
  - Time: 17:00:17-0600

 OpenFAST input file heading:
     FAST Certification Test #21: NREL 5.0 MW Baseline Offshore Turbine with OC4 Jacket
     Configuration

 Running ElastoDyn.
 Nodal outputs section of ElastoDyn input file not found or improperly formatted.
 Running AeroDyn.
 AD15 Nodal Outputs: Nodal output section of AeroDyn input file not found or improperly formatted.
 Skipping nodal outputs.
 Warning: Turning off Unsteady Aerodynamics because C_nalpha is 0. (node 1, blade 1)
 Warning: Turning off Unsteady Aerodynamics because C_nalpha is 0. (node 2, blade 1)
 Warning: Turning off Unsteady Aerodynamics because C_nalpha is 0. (node 3, blade 1)
 Warning: Turning off Unsteady Aerodynamics because C_nalpha is 0. (node 4, blade 1)
 Warning: Turning off Unsteady Aerodynamics because C_nalpha is 0. (node 1, blade 2)
 Warning: Turning off Unsteady Aerodynamics because C_nalpha is 0. (node 2, blade 2)
 Warning: Turning off Unsteady Aerodynamics because C_nalpha is 0. (node 3, blade 2)
 Warning: Turning off Unsteady Aerodynamics because C_nalpha is 0. (node 4, blade 2)
 Warning: Turning off Unsteady Aerodynamics because C_nalpha is 0. (node 1, blade 3)
 Warning: Turning off Unsteady Aerodynamics because C_nalpha is 0. (node 2, blade 3)
 Warning: Turning off Unsteady Aerodynamics because C_nalpha is 0. (node 3, blade 3)
 Warning: Turning off Unsteady Aerodynamics because C_nalpha is 0. (node 4, blade 3)
 Running InflowWind.

    Reading a 31x31 grid (145 m wide, 17.5 m to 162.5 m above ground) with a characteristic wind
    speed of 12 m/s. This full-field file was generated by TurbSim (v1.06.00, 21-Sep-2012) on
    07-Jan-2014 at 12:50:45.

    Processed 1442 time steps of 20-Hz full-field data (72.05 seconds).
 Running ServoDyn.
 Running ServoDyn Interface for Bladed Controllers (using Intel Fortran for Linux, ).
 Using legacy Bladed DLL interface.
 Running HydroDyn.
  Generating incident wave kinematics and current time history.
 Running SubDyn.
    Fixed bottom case detected
    Performing Craig-Bampton reduction 1056 DOFs -> 8 modes + 48 DOFs
 [WARN] Complex eigenvalue found with small Im compare to Re
 [WARN] Complex eigenvalue found with small Im compare to Re
 [WARN] Complex eigenvalue found with small Im compare to Re
 [WARN] Complex eigenvalue found with small Im compare to Re
    Using static improvement method for gravity and ext. loads
    SubDyn recommended dt: 0.00512 - Current dt: 0.01000 - Max frequency: 9.75841
    Calculating Full System Modes for summary file
  Time: 0 of 60 seconds.

 FAST_Solution:FAST_AdvanceStates:SrvD_UpdateStates:DLL_controller_call:BladedInterface option was
 designed for an explicit-loose coupling scheme. Using last calculated values from DLL on all
 subsequent calls until time is advanced. Warning will not be displayed again.

+                                                                                                  
+ Time: 1 of 60 seconds.  Estimated final completion at 17:42:15.
+                                                                                                  
+ Time: 2 of 60 seconds.  Estimated final completion at 17:11:53.
+                                                                                                  
+ Time: 3 of 60 seconds.  Estimated final completion at 17:12:12.
+                                                                                                  
+ Time: 4 of 60 seconds.  Estimated final completion at 17:12:35.
+                                                                                                  
+ Time: 5 of 60 seconds.  Estimated final completion at 17:12:60.
+                                                                                                  
+ Time: 6 of 60 seconds.  Estimated final completion at 17:13:22.
+                                                                                                  
+ Time: 7 of 60 seconds.  Estimated final completion at 17:13:12.
+                                                                                                  
+ Time: 8 of 60 seconds.  Estimated final completion at 17:13:08.
+                                                                                                  
+ Time: 9 of 60 seconds.  Estimated final completion at 17:13:02.
+                                                                                                  
+ Time: 10 of 60 seconds.  Estimated final completion at 17:12:53.
+                                                                                                  
+ Time: 11 of 60 seconds.  Estimated final completion at 17:12:51.
+                                                                                                  
+ Time: 12 of 60 seconds.  Estimated final completion at 17:13:16.
+                                                                                                  
+ Time: 13 of 60 seconds.  Estimated final completion at 17:13:25.
+                                                                                                  
+ Time: 14 of 60 seconds.  Estimated final completion at 17:12:59.
+                                                                                                  
+ Time: 15 of 60 seconds.  Estimated final completion at 17:12:51.
+                                                                                                  
+ Time: 16 of 60 seconds.  Estimated final completion at 17:12:55.
+                                                                                                  
+ Time: 17 of 60 seconds.  Estimated final completion at 17:12:51.
+                                                                                                  
+ Time: 18 of 60 seconds.  Estimated final completion at 17:13:06.
+                                                                                                  
+ Time: 19 of 60 seconds.  Estimated final completion at 17:13:02.
+                                                                                                  
+ Time: 20 of 60 seconds.  Estimated final completion at 17:13:06.
+                                                                                                  
+ Time: 21 of 60 seconds.  Estimated final completion at 17:12:34.
+                                                                                                  
+ Time: 22 of 60 seconds.  Estimated final completion at 17:12:25.
+                                                                                                  
+ Time: 23 of 60 seconds.  Estimated final completion at 17:12:25.
+                                                                                                  
+ Time: 24 of 60 seconds.  Estimated final completion at 17:12:15.
+                                                                                                  
+ Time: 25 of 60 seconds.  Estimated final completion at 17:12:28.
+                                                                                                  
+ Time: 26 of 60 seconds.  Estimated final completion at 17:12:09.
+                                                                                                  
+ Time: 27 of 60 seconds.  Estimated final completion at 17:12:08.
+                                                                                                  
+ Time: 28 of 60 seconds.  Estimated final completion at 17:12:05.
+                                                                                                  
+ Time: 29 of 60 seconds.  Estimated final completion at 17:12:02.
+                                                                                                  
+ Time: 30 of 60 seconds.  Estimated final completion at 17:12:08.
+                                                                                                  
+ Time: 31 of 60 seconds.  Estimated final completion at 17:12:06.
+                                                                                                  
+ Time: 32 of 60 seconds.  Estimated final completion at 17:11:59.
+                                                                                                  
+ Time: 33 of 60 seconds.  Estimated final completion at 17:12:03.
+                                                                                                  
+ Time: 34 of 60 seconds.  Estimated final completion at 17:11:54.
+                                                                                                  
+ Time: 35 of 60 seconds.  Estimated final completion at 17:11:48.
+                                                                                                  
+ Time: 36 of 60 seconds.  Estimated final completion at 17:11:50.
+                                                                                                  
+ Time: 37 of 60 seconds.  Estimated final completion at 17:11:46.
+                                                                                                  
+ Time: 38 of 60 seconds.  Estimated final completion at 17:11:54.
+                                                                                                  
+ Time: 39 of 60 seconds.  Estimated final completion at 17:12:08.
+                                                                                                  
+ Time: 40 of 60 seconds.  Estimated final completion at 17:11:59.
+                                                                                                  
+ Time: 41 of 60 seconds.  Estimated final completion at 17:11:59.
+                                                                                                  
+ Time: 42 of 60 seconds.  Estimated final completion at 17:12:04.
+                                                                                                  
+ Time: 43 of 60 seconds.  Estimated final completion at 17:12:14.
+                                                                                                  
+ Time: 44 of 60 seconds.  Estimated final completion at 17:12:02.
+                                                                                                  
+ Time: 45 of 60 seconds.  Estimated final completion at 17:12:01.
+                                                                                                  
+ Time: 46 of 60 seconds.  Estimated final completion at 17:12:02.
+                                                                                                  
+ Time: 47 of 60 seconds.  Estimated final completion at 17:12:00.
+                                                                                                  
+ Time: 48 of 60 seconds.  Estimated final completion at 17:12:02.
+                                                                                                  
+ Time: 49 of 60 seconds.  Estimated final completion at 17:12:02.
+                                                                                                  
+ Time: 50 of 60 seconds.  Estimated final completion at 17:11:60.
+                                                                                                  
+ Time: 51 of 60 seconds.  Estimated final completion at 17:12:00.
+                                                                                                  
+ Time: 52 of 60 seconds.  Estimated final completion at 17:12:02.
+                                                                                                  
+ Time: 53 of 60 seconds.  Estimated final completion at 17:12:01.
+                                                                                                  
+ Time: 54 of 60 seconds.  Estimated final completion at 17:12:01.
+                                                                                                  
+ Time: 55 of 60 seconds.  Estimated final completion at 17:11:58.
+                                                                                                  
+ Time: 56 of 60 seconds.  Estimated final completion at 17:11:60.
+                                                                                                  
+ Time: 57 of 60 seconds.  Estimated final completion at 17:12:01.
+                                                                                                  
+ Time: 58 of 60 seconds.  Estimated final completion at 17:12:02.
+                                                                                                  
+ Time: 59 of 60 seconds.  Estimated final completion at 17:12:01.
+                                                                                                  
+ Time: 60 of 60 seconds.  Estimated final completion at 17:12:02.
+                                                                                                  

  Total Real Time:       11.736 minutes
  Total CPU Time:        11.728 minutes
  Simulation CPU Time:   11.283 minutes
  Simulated Time:        1 minutes
  Time Ratio (Sim/CPU):  8.86304E-02

  OpenFAST terminated normally.

