
 **************************************************************************************************
 OpenFAST

 Copyright (C) 2022 National Renewable Energy Laboratory
 Copyright (C) 2022 Envision Energy USA LTD

 This program is licensed under Apache License Version 2.0 and comes with ABSOLUTELY NO WARRANTY.
 See the "LICENSE" file distributed with this software for details.
 **************************************************************************************************

 OpenFAST-v3.1.0-243-ge6028eae-dirty
 Compile Info:
  - Compiler: Intel(R) Fortran Intel(R) 64 Compiler Classic for applications running on Intel(R)
  64, Version 2021.1 Build 20201112_000000
  - Architecture: 64 bit
  - Precision: double
  - OpenMP: No
  - Date: Jul 06 2022
  - Time: 19:28:39
 Execution Info:
  - Date: 07/06/2022
  - Time: 23:15:08-0500

 OpenFAST input file heading:
     FAST Certification Test #21: NREL 5.0 MW Baseline Offshore Turbine with OC4 Jacket
     Configuration

 Running ElastoDyn.
 Nodal outputs section of ElastoDyn input file not found or improperly formatted.
 Running AeroDyn.
 AD15 Nodal Outputs: Nodal output section of AeroDyn input file not found or improperly formatted.
 Skipping nodal outputs.
 Warning: Turning off Unsteady Aerodynamics because UA parameters are not included in airfoil
 (airfoil has likely has constant polars). (node 1, blade 1)
 Warning: Turning off Unsteady Aerodynamics because UA parameters are not included in airfoil
 (airfoil has likely has constant polars). (node 2, blade 1)
 Warning: Turning off Unsteady Aerodynamics because UA parameters are not included in airfoil
 (airfoil has likely has constant polars). (node 3, blade 1)
 Warning: Turning off Unsteady Aerodynamics because UA parameters are not included in airfoil
 (airfoil has likely has constant polars). (node 4, blade 1)
 Warning: Turning off Unsteady Aerodynamics because UA parameters are not included in airfoil
 (airfoil has likely has constant polars). (node 1, blade 2)
 Warning: Turning off Unsteady Aerodynamics because UA parameters are not included in airfoil
 (airfoil has likely has constant polars). (node 2, blade 2)
 Warning: Turning off Unsteady Aerodynamics because UA parameters are not included in airfoil
 (airfoil has likely has constant polars). (node 3, blade 2)
 Warning: Turning off Unsteady Aerodynamics because UA parameters are not included in airfoil
 (airfoil has likely has constant polars). (node 4, blade 2)
 Warning: Turning off Unsteady Aerodynamics because UA parameters are not included in airfoil
 (airfoil has likely has constant polars). (node 1, blade 3)
 Warning: Turning off Unsteady Aerodynamics because UA parameters are not included in airfoil
 (airfoil has likely has constant polars). (node 2, blade 3)
 Warning: Turning off Unsteady Aerodynamics because UA parameters are not included in airfoil
 (airfoil has likely has constant polars). (node 3, blade 3)
 Warning: Turning off Unsteady Aerodynamics because UA parameters are not included in airfoil
 (airfoil has likely has constant polars). (node 4, blade 3)
 Running InflowWind.

    Reading a 31x31 grid (145 m wide, 17.5 m to 162.5 m above ground) with a characteristic wind
    speed of 12 m/s. This full-field file was generated by TurbSim (from
    OpenFAST-v3.0.0-98-g7bde6b54) on 14-Sep-2021 at 11:49:55.

    Processed 1442 time steps of 20-Hz full-field data (72.05 seconds).
 Running HydroDyn.
  Generating incident wave kinematics and current time history.
 Running SubDyn.
    Fixed bottom case detected
    Performing Craig-Bampton reduction 1056 DOFs -> 8 modes + 48 DOFs
 [WARN] Complex eigenvalue found with small Im compare to Re
 [WARN] Complex eigenvalue found with small Im compare to Re
 [WARN] Complex eigenvalue found with small Im compare to Re
 [WARN] Complex eigenvalue found with small Im compare to Re
    Using static improvement method for gravity and ext. loads
    SubDyn recommended dt: 0.00512 - Current dt: 0.01000 - Max frequency:    9.758
    Calculating Full System Modes for output files
    Exporting Summary file
 Running ServoDyn.
 Running ServoDyn Interface for Bladed Controllers (using Intel Fortran for Linux).
 Using legacy Bladed DLL interface.
  Time: 0 of 60 seconds.

 FAST_Solution:FAST_AdvanceStates:SrvD_UpdateStates:DLL_controller_call:BladedInterface option was
 designed for an explicit-loose coupling scheme. Using last calculated values from DLL on all
 subsequent calls until time is advanced. Warning will not be displayed again.

+                                                                                                  
+ Time: 1 of 60 seconds.  Estimated final completion at 23:59:01.
+                                                                                                  
+ Time: 2 of 60 seconds.  Estimated final completion at 23:27:38.
+                                                                                                  
+ Time: 3 of 60 seconds.  Estimated final completion at 23:27:43.
+                                                                                                  
+ Time: 4 of 60 seconds.  Estimated final completion at 23:27:36.
+                                                                                                  
+ Time: 5 of 60 seconds.  Estimated final completion at 23:27:46.
+                                                                                                  
+ Time: 6 of 60 seconds.  Estimated final completion at 23:27:57.
+                                                                                                  
+ Time: 7 of 60 seconds.  Estimated final completion at 23:27:39.
+                                                                                                  
+ Time: 8 of 60 seconds.  Estimated final completion at 23:28:05.
+                                                                                                  
+ Time: 9 of 60 seconds.  Estimated final completion at 23:27:48.
+                                                                                                  
+ Time: 10 of 60 seconds.  Estimated final completion at 23:27:40.
+                                                                                                  
+ Time: 11 of 60 seconds.  Estimated final completion at 23:27:30.
+                                                                                                  
+ Time: 12 of 60 seconds.  Estimated final completion at 23:27:46.
+                                                                                                  
+ Time: 13 of 60 seconds.  Estimated final completion at 23:27:57.
+                                                                                                  
+ Time: 14 of 60 seconds.  Estimated final completion at 23:27:54.
+                                                                                                  
+ Time: 15 of 60 seconds.  Estimated final completion at 23:27:47.
+                                                                                                  
+ Time: 16 of 60 seconds.  Estimated final completion at 23:27:45.
+                                                                                                  
+ Time: 17 of 60 seconds.  Estimated final completion at 23:27:20.
+                                                                                                  
+ Time: 18 of 60 seconds.  Estimated final completion at 23:27:07.
+                                                                                                  
+ Time: 19 of 60 seconds.  Estimated final completion at 23:27:11.
+                                                                                                  
+ Time: 20 of 60 seconds.  Estimated final completion at 23:27:29.
+                                                                                                  
+ Time: 21 of 60 seconds.  Estimated final completion at 23:27:15.
+                                                                                                  
+ Time: 22 of 60 seconds.  Estimated final completion at 23:27:04.
+                                                                                                  
+ Time: 23 of 60 seconds.  Estimated final completion at 23:27:27.
+                                                                                                  
+ Time: 24 of 60 seconds.  Estimated final completion at 23:27:19.
+                                                                                                  
+ Time: 25 of 60 seconds.  Estimated final completion at 23:27:21.
+                                                                                                  
+ Time: 26 of 60 seconds.  Estimated final completion at 23:27:20.
+                                                                                                  
+ Time: 27 of 60 seconds.  Estimated final completion at 23:27:36.
+                                                                                                  
+ Time: 28 of 60 seconds.  Estimated final completion at 23:27:47.
+                                                                                                  
+ Time: 29 of 60 seconds.  Estimated final completion at 23:27:21.
+                                                                                                  
+ Time: 30 of 60 seconds.  Estimated final completion at 23:27:21.
+                                                                                                  
+ Time: 31 of 60 seconds.  Estimated final completion at 23:27:34.
+                                                                                                  
+ Time: 32 of 60 seconds.  Estimated final completion at 23:27:38.
+                                                                                                  
+ Time: 33 of 60 seconds.  Estimated final completion at 23:27:32.
+                                                                                                  
+ Time: 34 of 60 seconds.  Estimated final completion at 23:27:40.
+                                                                                                  
+ Time: 35 of 60 seconds.  Estimated final completion at 23:27:23.
+                                                                                                  
+ Time: 36 of 60 seconds.  Estimated final completion at 23:27:29.
+                                                                                                  
+ Time: 37 of 60 seconds.  Estimated final completion at 23:27:37.
+                                                                                                  
+ Time: 38 of 60 seconds.  Estimated final completion at 23:27:24.
+                                                                                                  
+ Time: 39 of 60 seconds.  Estimated final completion at 23:27:38.
+                                                                                                  
+ Time: 40 of 60 seconds.  Estimated final completion at 23:27:15.
+                                                                                                  
+ Time: 41 of 60 seconds.  Estimated final completion at 23:27:13.
+                                                                                                  
+ Time: 42 of 60 seconds.  Estimated final completion at 23:27:15.
+                                                                                                  
+ Time: 43 of 60 seconds.  Estimated final completion at 23:26:52.
+                                                                                                  
+ Time: 44 of 60 seconds.  Estimated final completion at 23:26:49.
+                                                                                                  
+ Time: 45 of 60 seconds.  Estimated final completion at 23:27:04.
+                                                                                                  
+ Time: 46 of 60 seconds.  Estimated final completion at 23:26:52.
+                                                                                                  
+ Time: 47 of 60 seconds.  Estimated final completion at 23:26:55.
+                                                                                                  
+ Time: 48 of 60 seconds.  Estimated final completion at 23:26:55.
+                                                                                                  
+ Time: 49 of 60 seconds.  Estimated final completion at 23:26:54.
+                                                                                                  
+ Time: 50 of 60 seconds.  Estimated final completion at 23:27:11.
+                                                                                                  
+ Time: 51 of 60 seconds.  Estimated final completion at 23:26:53.
+                                                                                                  
+ Time: 52 of 60 seconds.  Estimated final completion at 23:26:56.
+                                                                                                  
+ Time: 53 of 60 seconds.  Estimated final completion at 23:26:50.
+                                                                                                  
+ Time: 54 of 60 seconds.  Estimated final completion at 23:26:51.
+                                                                                                  
+ Time: 55 of 60 seconds.  Estimated final completion at 23:26:50.
+                                                                                                  
+ Time: 56 of 60 seconds.  Estimated final completion at 23:26:50.
+                                                                                                  
+ Time: 57 of 60 seconds.  Estimated final completion at 23:26:52.
+                                                                                                  
+ Time: 58 of 60 seconds.  Estimated final completion at 23:26:52.
+                                                                                                  
+ Time: 59 of 60 seconds.  Estimated final completion at 23:26:51.
+                                                                                                  
+ Time: 60 of 60 seconds.  Estimated final completion at 23:26:51.
+                                                                                                  

  Total Real Time:       11.708 minutes
  Total CPU Time:        11.708 minutes
  Simulation CPU Time:   11.261 minutes
  Simulated Time:        1 minutes
  Time Ratio (Sim/CPU):  8.88021E-02

  OpenFAST terminated normally.

