
This summary file was generated by HydroDyn  on 06-Jul-2022 at 12:54:35.




Strip-Theory Volume Calculations(m^3)
-------------------------------------
  Structure Volume     :    8.30358E+02
  Submerged Volume     :    6.61151E+02
  Marine Growth Volume :    1.63794E+02
  Ballasted Volume     :    1.99574E+02
              NOTE: Structure, Submerged and Marine Growth volumes are based on members not modelled with WAMIT
                      Ballasted volume is computed from all members which are marked as filled in the HydroDyn input file, regardless of PropPot flag



Total Buoyancy loads summed about ( 0.0, 0.0, 0.0 )
---------------------------------------------------
                                BuoyFxi               BuoyFyi               BuoyFzi               BuoyMxi               BuoyMyi               BuoyMzi 
                                  (N)                   (N)                   (N)                  (N-m)                 (N-m)                 (N-m)  
 External:                 -4.868068E-11          7.603984E-11         -1.984795E+05         -3.659914E-09          5.361651E-09          2.125036E-11
 Internal:                  5.421011E-14          6.613633E-12          4.071943E+06         -3.794708E-12         -1.034871E-10          0.000000E+00
 Total   :                 -4.862647E-11          8.265347E-11          3.873464E+06         -3.663709E-09          5.258164E-09          2.125036E-11
              NOTE: External buoyancy is based on members not modelled with WAMIT
                      Internal buoyancy is computed from all members which are marked as filled in the HydroDyn input file, regardless of PropPot flag
                    Total buoyancy does not include WAMIT-modelled buoyancy contribution



Weight loads about ( 0.0, 0.0, 0.0 )
------------------------------------
                                 MGFxi                 MGFyi                 MGFzi                 MGMxi                 MGMyi                 MGMzi  
                                  (N)                   (N)                   (N)                  (N-m)                 (N-m)                 (N-m)  
 Marine Growth:             0.000000E+00          0.000000E+00         -1.757758E+06          4.263078E-10         -1.488653E-10          0.000000E+00



Nodes (first [  64 ] are joints, remainder are internal nodes)


   i      MbrIndx      Nxi         Nyi         Nzi           R          t          tMG        MGDens     PropPot    FilledFlag  FilledMass      Cd          Ca          Cp         AxCd        AxCa        AxCp        JAxCd       JAxCa       JAxCp  
  (-)       (-)        (m)         (m)         (m)          (m)        (m)         (m)       (kg/m^3)      (-)         (-)        (kg)          (-)         (-)         (-)         (-)         (-)         (-)         (-)         (-)         (-)   
     1      -           6.0000      6.0000    -45.5000      -           -        0.000E+00   0.000E+00      -           -           -           -           -           -           -           -           -        0.000E+00   1.000E+00   1.000E+00
     2      -           6.0000      6.0000    -45.0000      -           -        0.000E+00   0.000E+00      -           -           -           -           -           -           -           -           -        0.000E+00   1.000E+00   1.000E+00
     3      -           5.9670      5.9670    -44.0010      -           -        0.000E+00   0.000E+00      -           -           -           -           -           -           -           -           -        0.000E+00   1.000E+00   1.000E+00
     4      -           5.9390      5.9390    -43.1270      -           -        0.000E+00   0.000E+00      -           -           -           -           -           -           -           -           -        0.000E+00   1.000E+00   1.000E+00
     5      -           5.3330      5.3330    -24.6140      -           -        1.000E-01   1.100E+03      -           -           -           -           -           -           -           -           -        0.000E+00   1.000E+00   1.000E+00
     6      -          -6.0000      6.0000    -45.5000      -           -        0.000E+00   0.000E+00      -           -           -           -           -           -           -           -           -        0.000E+00   1.000E+00   1.000E+00
     7      -          -6.0000      6.0000    -45.0000      -           -        0.000E+00   0.000E+00      -           -           -           -           -           -           -           -           -        0.000E+00   1.000E+00   1.000E+00
     8      -          -5.9670      5.9670    -44.0010      -           -        0.000E+00   0.000E+00      -           -           -           -           -           -           -           -           -        0.000E+00   1.000E+00   1.000E+00
     9      -          -5.9390      5.9390    -43.1270      -           -        0.000E+00   0.000E+00      -           -           -           -           -           -           -           -           -        0.000E+00   1.000E+00   1.000E+00
    10      -          -5.3330      5.3330    -24.6140      -           -        1.000E-01   1.100E+03      -           -           -           -           -           -           -           -           -        0.000E+00   1.000E+00   1.000E+00
    11      -          -6.0000     -6.0000    -45.5000      -           -        0.000E+00   0.000E+00      -           -           -           -           -           -           -           -           -        0.000E+00   1.000E+00   1.000E+00
    12      -          -6.0000     -6.0000    -45.0000      -           -        0.000E+00   0.000E+00      -           -           -           -           -           -           -           -           -        0.000E+00   1.000E+00   1.000E+00
    13      -          -5.9670     -5.9670    -44.0010      -           -        0.000E+00   0.000E+00      -           -           -           -           -           -           -           -           -        0.000E+00   1.000E+00   1.000E+00
    14      -          -5.9390     -5.9390    -43.1270      -           -        0.000E+00   0.000E+00      -           -           -           -           -           -           -           -           -        0.000E+00   1.000E+00   1.000E+00
    15      -          -5.3330     -5.3330    -24.6140      -           -        1.000E-01   1.100E+03      -           -           -           -           -           -           -           -           -        0.000E+00   1.000E+00   1.000E+00
    16      -           6.0000     -6.0000    -45.5000      -           -        0.000E+00   0.000E+00      -           -           -           -           -           -           -           -           -        0.000E+00   1.000E+00   1.000E+00
    17      -           6.0000     -6.0000    -45.0000      -           -        0.000E+00   0.000E+00      -           -           -           -           -           -           -           -           -        0.000E+00   1.000E+00   1.000E+00
    18      -           5.9670     -5.9670    -44.0010      -           -        0.000E+00   0.000E+00      -           -           -           -           -           -           -           -           -        0.000E+00   1.000E+00   1.000E+00
    19      -           5.9390     -5.9390    -43.1270      -           -        0.000E+00   0.000E+00      -           -           -           -           -           -           -           -           -        0.000E+00   1.000E+00   1.000E+00
    20      -           5.3330     -5.3330    -24.6140      -           -        1.000E-01   1.100E+03      -           -           -           -           -           -           -           -           -        0.000E+00   1.000E+00   1.000E+00
    21      -           4.8200      4.8200     -8.9220      -           -        1.000E-01   1.100E+03      -           -           -           -           -           -           -           -           -        0.000E+00   1.000E+00   1.000E+00
    22      -           4.3850      4.3850      4.3780      -           -        0.000E+00   0.000E+00      -           -           -           -           -           -           -           -           -        0.000E+00   1.000E+00   1.000E+00
    23      -           4.0160      4.0160     15.6510      -           -        0.000E+00   0.000E+00      -           -           -           -           -           -           -           -           -        0.000E+00   1.000E+00   1.000E+00
    24      -           4.0000      4.0000     16.1500      -           -        0.000E+00   0.000E+00      -           -           -           -           -           -           -           -           -        0.000E+00   1.000E+00   1.000E+00
    25      -          -4.8200      4.8200     -8.9220      -           -        1.000E-01   1.100E+03      -           -           -           -           -           -           -           -           -        0.000E+00   1.000E+00   1.000E+00
    26      -          -4.3850      4.3850      4.3780      -           -        0.000E+00   0.000E+00      -           -           -           -           -           -           -           -           -        0.000E+00   1.000E+00   1.000E+00
    27      -          -4.0160      4.0160     15.6510      -           -        0.000E+00   0.000E+00      -           -           -           -           -           -           -           -           -        0.000E+00   1.000E+00   1.000E+00
    28      -          -4.0000      4.0000     16.1500      -           -        0.000E+00   0.000E+00      -           -           -           -           -           -           -           -           -        0.000E+00   1.000E+00   1.000E+00
    29      -          -4.8200     -4.8200     -8.9220      -           -        1.000E-01   1.100E+03      -           -           -           -           -           -           -           -           -        0.000E+00   1.000E+00   1.000E+00
    30      -          -4.3850     -4.3850      4.3780      -           -        0.000E+00   0.000E+00      -           -           -           -           -           -           -           -           -        0.000E+00   1.000E+00   1.000E+00
    31      -          -4.0160     -4.0160     15.6510      -           -        0.000E+00   0.000E+00      -           -           -           -           -           -           -           -           -        0.000E+00   1.000E+00   1.000E+00
    32      -          -4.0000     -4.0000     16.1500      -           -        0.000E+00   0.000E+00      -           -           -           -           -           -           -           -           -        0.000E+00   1.000E+00   1.000E+00
    33      -           4.8200     -4.8200     -8.9220      -           -        1.000E-01   1.100E+03      -           -           -           -           -           -           -           -           -        0.000E+00   1.000E+00   1.000E+00
    34      -           4.3850     -4.3850      4.3780      -           -        0.000E+00   0.000E+00      -           -           -           -           -           -           -           -           -        0.000E+00   1.000E+00   1.000E+00
    35      -           4.0160     -4.0160     15.6510      -           -        0.000E+00   0.000E+00      -           -           -           -           -           -           -           -           -        0.000E+00   1.000E+00   1.000E+00
    36      -           4.0000     -4.0000     16.1500      -           -        0.000E+00   0.000E+00      -           -           -           -           -           -           -           -           -        0.000E+00   1.000E+00   1.000E+00
    37      -           5.6200      0.0000    -33.3730      -           -        1.000E-01   1.100E+03      -           -           -           -           -           -           -           -           -        0.000E+00   1.000E+00   1.000E+00
    38      -          -5.6200      0.0000    -33.3730      -           -        1.000E-01   1.100E+03      -           -           -           -           -           -           -           -           -        0.000E+00   1.000E+00   1.000E+00
    39      -           0.0000      5.6200    -33.3730      -           -        1.000E-01   1.100E+03      -           -           -           -           -           -           -           -           -        0.000E+00   1.000E+00   1.000E+00
    40      -           0.0000     -5.6200    -33.3730      -           -        1.000E-01   1.100E+03      -           -           -           -           -           -           -           -           -        0.000E+00   1.000E+00   1.000E+00
    41      -           5.0640      0.0000    -16.3710      -           -        1.000E-01   1.100E+03      -           -           -           -           -           -           -           -           -        0.000E+00   1.000E+00   1.000E+00
    42      -          -5.0640      0.0000    -16.3710      -           -        1.000E-01   1.100E+03      -           -           -           -           -           -           -           -           -        0.000E+00   1.000E+00   1.000E+00
    43      -           0.0000      5.0640    -16.3710      -           -        1.000E-01   1.100E+03      -           -           -           -           -           -           -           -           -        0.000E+00   1.000E+00   1.000E+00
    44      -           0.0000     -5.0640    -16.3710      -           -        1.000E-01   1.100E+03      -           -           -           -           -           -           -           -           -        0.000E+00   1.000E+00   1.000E+00
    45      -           4.5920      0.0000     -1.9580      -           -        0.000E+00   0.000E+00      -           -           -           -           -           -           -           -           -        0.000E+00   1.000E+00   1.000E+00
    46      -          -4.5920      0.0000     -1.9580      -           -        0.000E+00   0.000E+00      -           -           -           -           -           -           -           -           -        0.000E+00   1.000E+00   1.000E+00
    47      -           0.0000      4.5920     -1.9580      -           -        0.000E+00   0.000E+00      -           -           -           -           -           -           -           -           -        0.000E+00   1.000E+00   1.000E+00
    48      -           0.0000     -4.5920     -1.9580      -           -        0.000E+00   0.000E+00      -           -           -           -           -           -           -           -           -        0.000E+00   1.000E+00   1.000E+00
    49      -           4.1930      0.0000     10.2620      -           -        0.000E+00   0.000E+00      -           -           -           -           -           -           -           -           -        0.000E+00   1.000E+00   1.000E+00
    50      -          -4.1930      0.0000     10.2620      -           -        0.000E+00   0.000E+00      -           -           -           -           -           -           -           -           -        0.000E+00   1.000E+00   1.000E+00
    51      -           0.0000      4.1930     10.2620      -           -        0.000E+00   0.000E+00      -           -           -           -           -           -           -           -           -        0.000E+00   1.000E+00   1.000E+00
    52      -           0.0000     -4.1930     10.2620      -           -        0.000E+00   0.000E+00      -           -           -           -           -           -           -           -           -        0.000E+00   1.000E+00   1.000E+00
    53      -           4.0000      4.0000     20.1500      -           -        0.000E+00   0.000E+00      -           -           -           -           -           -           -           -           -        0.000E+00   1.000E+00   1.000E+00
    54      -          -4.0000      4.0000     20.1500      -           -        0.000E+00   0.000E+00      -           -           -           -           -           -           -           -           -        0.000E+00   1.000E+00   1.000E+00
    55      -           4.0000     -4.0000     20.1500      -           -        0.000E+00   0.000E+00      -           -           -           -           -           -           -           -           -        0.000E+00   1.000E+00   1.000E+00
    56      -          -4.0000     -4.0000     20.1500      -           -        0.000E+00   0.000E+00      -           -           -           -           -           -           -           -           -        0.000E+00   1.000E+00   1.000E+00
    57      -           6.0000     -6.0000    -49.5000      -           -        0.000E+00   0.000E+00      -           -           -           -           -           -           -           -           -        0.000E+00   1.000E+00   1.000E+00
    58      -           6.0000      6.0000    -49.5000      -           -        0.000E+00   0.000E+00      -           -           -           -           -           -           -           -           -        0.000E+00   1.000E+00   1.000E+00
    59      -          -6.0000     -6.0000    -49.5000      -           -        0.000E+00   0.000E+00      -           -           -           -           -           -           -           -           -        0.000E+00   1.000E+00   1.000E+00
    60      -          -6.0000      6.0000    -49.5000      -           -        0.000E+00   0.000E+00      -           -           -           -           -           -           -           -           -        0.000E+00   1.000E+00   1.000E+00
    61      -           6.0000     -6.0000    -50.0010      -           -        0.000E+00   0.000E+00      -           -           -           -           -           -           -           -           -        0.000E+00   1.000E+00   1.000E+00
    62      -           6.0000      6.0000    -50.0010      -           -        0.000E+00   0.000E+00      -           -           -           -           -           -           -           -           -        0.000E+00   1.000E+00   1.000E+00
    63      -          -6.0000     -6.0000    -50.0010      -           -        0.000E+00   0.000E+00      -           -           -           -           -           -           -           -           -        0.000E+00   1.000E+00   1.000E+00
    64      -          -6.0000      6.0000    -50.0010      -           -        0.000E+00   0.000E+00      -           -           -           -           -           -           -           -           -        0.000E+00   1.000E+00   1.000E+00
    65           2      5.9835      5.9835    -44.5005   6.000E-01   5.000E-02   0.000E+00   0.000E+00           F           T   4.871E+02   1.000E+00   1.000E+00   1.000E+00   1.000E+00   1.000E+00   1.000E+00         -           -           -  
    66           4      5.9071      5.9071    -42.1526   6.000E-01   5.000E-02   0.000E+00   0.000E+00           F           T   9.501E+02   1.000E+00   1.000E+00   1.000E+00   1.000E+00   1.000E+00   1.000E+00         -           -           -  
    67           4      5.8752      5.8752    -41.1783   6.000E-01   5.000E-02   0.000E+00   0.000E+00           F           T   9.501E+02   1.000E+00   1.000E+00   1.000E+00   1.000E+00   1.000E+00   1.000E+00         -           -           -  
    68           4      5.8433      5.8433    -40.2039   6.000E-01   5.000E-02   0.000E+00   0.000E+00           F           T   9.501E+02   1.000E+00   1.000E+00   1.000E+00   1.000E+00   1.000E+00   1.000E+00         -           -           -  
    69           4      5.8114      5.8114    -39.2295   6.000E-01   5.000E-02   1.000E-01   1.100E+03           F           T   9.501E+02   1.000E+00   1.000E+00   1.000E+00   1.000E+00   1.000E+00   1.000E+00         -           -           -  
    70           4      5.7795      5.7795    -38.2552   6.000E-01   5.000E-02   1.000E-01   1.100E+03           F           T   9.501E+02   1.000E+00   1.000E+00   1.000E+00   1.000E+00   1.000E+00   1.000E+00         -           -           -  
    71           4      5.7476      5.7476    -37.2808   6.000E-01   5.000E-02   1.000E-01   1.100E+03           F           T   9.501E+02   1.000E+00   1.000E+00   1.000E+00   1.000E+00   1.000E+00   1.000E+00         -           -           -  
    72           4      5.7157      5.7157    -36.3064   6.000E-01   5.000E-02   1.000E-01   1.100E+03           F           T   9.501E+02   1.000E+00   1.000E+00   1.000E+00   1.000E+00   1.000E+00   1.000E+00         -           -           -  
    73           4      5.6838      5.6838    -35.3321   6.000E-01   5.000E-02   1.000E-01   1.100E+03           F           T   9.501E+02   1.000E+00   1.000E+00   1.000E+00   1.000E+00   1.000E+00   1.000E+00         -           -           -  
    74           4      5.6519      5.6519    -34.3577   6.000E-01   5.000E-02   1.000E-01   1.100E+03           F           T   9.501E+02   1.000E+00   1.000E+00   1.000E+00   1.000E+00   1.000E+00   1.000E+00         -           -           -  
    75           4      5.6201      5.6201    -33.3833   6.000E-01   5.000E-02   1.000E-01   1.100E+03           F           T   9.501E+02   1.000E+00   1.000E+00   1.000E+00   1.000E+00   1.000E+00   1.000E+00         -           -           -  
    76           4      5.5882      5.5882    -32.4089   6.000E-01   5.000E-02   1.000E-01   1.100E+03           F           T   9.501E+02   1.000E+00   1.000E+00   1.000E+00   1.000E+00   1.000E+00   1.000E+00         -           -           -  
    77           4      5.5563      5.5563    -31.4346   6.000E-01   5.000E-02   1.000E-01   1.100E+03           F           T   9.501E+02   1.000E+00   1.000E+00   1.000E+00   1.000E+00   1.000E+00   1.000E+00         -           -           -  
    78           4      5.5244      5.5244    -30.4602   6.000E-01   5.000E-02   1.000E-01   1.100E+03           F           T   9.501E+02   1.000E+00   1.000E+00   1.000E+00   1.000E+00   1.000E+00   1.000E+00         -           -           -  
    79           4      5.4925      5.4925    -29.4858   6.000E-01   5.000E-02   1.000E-01   1.100E+03           F           T   9.501E+02   1.000E+00   1.000E+00   1.000E+00   1.000E+00   1.000E+00   1.000E+00         -           -           -  
    80           4      5.4606      5.4606    -28.5115   6.000E-01   5.000E-02   1.000E-01   1.100E+03           F           T   9.501E+02   1.000E+00   1.000E+00   1.000E+00   1.000E+00   1.000E+00   1.000E+00         -           -           -  
    81           4      5.4287      5.4287    -27.5371   6.000E-01   5.000E-02   1.000E-01   1.100E+03           F           T   9.501E+02   1.000E+00   1.000E+00   1.000E+00   1.000E+00   1.000E+00   1.000E+00         -           -           -  
    82           4      5.3968      5.3968    -26.5627   6.000E-01   5.000E-02   1.000E-01   1.100E+03           F           T   9.501E+02   1.000E+00   1.000E+00   1.000E+00   1.000E+00   1.000E+00   1.000E+00         -           -           -  
    83           4      5.3649      5.3649    -25.5884   6.000E-01   5.000E-02   1.000E-01   1.100E+03           F           T   9.501E+02   1.000E+00   1.000E+00   1.000E+00   1.000E+00   1.000E+00   1.000E+00         -           -           -  
    84           6     -5.9835      5.9835    -44.5005   6.000E-01   5.000E-02   0.000E+00   0.000E+00           F           T   4.871E+02   1.000E+00   1.000E+00   1.000E+00   1.000E+00   1.000E+00   1.000E+00         -           -           -  
    85           8     -5.9071      5.9071    -42.1526   6.000E-01   5.000E-02   0.000E+00   0.000E+00           F           T   9.501E+02   1.000E+00   1.000E+00   1.000E+00   1.000E+00   1.000E+00   1.000E+00         -           -           -  
    86           8     -5.8752      5.8752    -41.1783   6.000E-01   5.000E-02   0.000E+00   0.000E+00           F           T   9.501E+02   1.000E+00   1.000E+00   1.000E+00   1.000E+00   1.000E+00   1.000E+00         -           -           -  
    87           8     -5.8433      5.8433    -40.2039   6.000E-01   5.000E-02   0.000E+00   0.000E+00           F           T   9.501E+02   1.000E+00   1.000E+00   1.000E+00   1.000E+00   1.000E+00   1.000E+00         -           -           -  
    88           8     -5.8114      5.8114    -39.2295   6.000E-01   5.000E-02   1.000E-01   1.100E+03           F           T   9.501E+02   1.000E+00   1.000E+00   1.000E+00   1.000E+00   1.000E+00   1.000E+00         -           -           -  
    89           8     -5.7795      5.7795    -38.2552   6.000E-01   5.000E-02   1.000E-01   1.100E+03           F           T   9.501E+02   1.000E+00   1.000E+00   1.000E+00   1.000E+00   1.000E+00   1.000E+00         -           -           -  
    90           8     -5.7476      5.7476    -37.2808   6.000E-01   5.000E-02   1.000E-01   1.100E+03           F           T   9.501E+02   1.000E+00   1.000E+00   1.000E+00   1.000E+00   1.000E+00   1.000E+00         -           -           -  
    91           8     -5.7157      5.7157    -36.3064   6.000E-01   5.000E-02   1.000E-01   1.100E+03           F           T   9.501E+02   1.000E+00   1.000E+00   1.000E+00   1.000E+00   1.000E+00   1.000E+00         -           -           -  
    92           8     -5.6838      5.6838    -35.3321   6.000E-01   5.000E-02   1.000E-01   1.100E+03           F           T   9.501E+02   1.000E+00   1.000E+00   1.000E+00   1.000E+00   1.000E+00   1.000E+00         -           -           -  
    93           8     -5.6519      5.6519    -34.3577   6.000E-01   5.000E-02   1.000E-01   1.100E+03           F           T   9.501E+02   1.000E+00   1.000E+00   1.000E+00   1.000E+00   1.000E+00   1.000E+00         -           -           -  
    94           8     -5.6201      5.6201    -33.3833   6.000E-01   5.000E-02   1.000E-01   1.100E+03           F           T   9.501E+02   1.000E+00   1.000E+00   1.000E+00   1.000E+00   1.000E+00   1.000E+00         -           -           -  
    95           8     -5.5882      5.5882    -32.4089   6.000E-01   5.000E-02   1.000E-01   1.100E+03           F           T   9.501E+02   1.000E+00   1.000E+00   1.000E+00   1.000E+00   1.000E+00   1.000E+00         -           -           -  
    96           8     -5.5563      5.5563    -31.4346   6.000E-01   5.000E-02   1.000E-01   1.100E+03           F           T   9.501E+02   1.000E+00   1.000E+00   1.000E+00   1.000E+00   1.000E+00   1.000E+00         -           -           -  
    97           8     -5.5244      5.5244    -30.4602   6.000E-01   5.000E-02   1.000E-01   1.100E+03           F           T   9.501E+02   1.000E+00   1.000E+00   1.000E+00   1.000E+00   1.000E+00   1.000E+00         -           -           -  
    98           8     -5.4925      5.4925    -29.4858   6.000E-01   5.000E-02   1.000E-01   1.100E+03           F           T   9.501E+02   1.000E+00   1.000E+00   1.000E+00   1.000E+00   1.000E+00   1.000E+00         -           -           -  
    99           8     -5.4606      5.4606    -28.5115   6.000E-01   5.000E-02   1.000E-01   1.100E+03           F           T   9.501E+02   1.000E+00   1.000E+00   1.000E+00   1.000E+00   1.000E+00   1.000E+00         -           -           -  
   100           8     -5.4287      5.4287    -27.5371   6.000E-01   5.000E-02   1.000E-01   1.100E+03           F           T   9.501E+02   1.000E+00   1.000E+00   1.000E+00   1.000E+00   1.000E+00   1.000E+00         -           -           -  
   101           8     -5.3968      5.3968    -26.5627   6.000E-01   5.000E-02   1.000E-01   1.100E+03           F           T   9.501E+02   1.000E+00   1.000E+00   1.000E+00   1.000E+00   1.000E+00   1.000E+00         -           -           -  
   102           8     -5.3649      5.3649    -25.5884   6.000E-01   5.000E-02   1.000E-01   1.100E+03           F           T   9.501E+02   1.000E+00   1.000E+00   1.000E+00   1.000E+00   1.000E+00   1.000E+00         -           -           -  
   103          10     -5.9835     -5.9835    -44.5005   6.000E-01   5.000E-02   0.000E+00   0.000E+00           F           T   4.871E+02   1.000E+00   1.000E+00   1.000E+00   1.000E+00   1.000E+00   1.000E+00         -           -           -  
   104          12     -5.9071     -5.9071    -42.1526   6.000E-01   5.000E-02   0.000E+00   0.000E+00           F           T   9.501E+02   1.000E+00   1.000E+00   1.000E+00   1.000E+00   1.000E+00   1.000E+00         -           -           -  
   105          12     -5.8752     -5.8752    -41.1783   6.000E-01   5.000E-02   0.000E+00   0.000E+00           F           T   9.501E+02   1.000E+00   1.000E+00   1.000E+00   1.000E+00   1.000E+00   1.000E+00         -           -           -  
   106          12     -5.8433     -5.8433    -40.2039   6.000E-01   5.000E-02   0.000E+00   0.000E+00           F           T   9.501E+02   1.000E+00   1.000E+00   1.000E+00   1.000E+00   1.000E+00   1.000E+00         -           -           -  
   107          12     -5.8114     -5.8114    -39.2295   6.000E-01   5.000E-02   1.000E-01   1.100E+03           F           T   9.501E+02   1.000E+00   1.000E+00   1.000E+00   1.000E+00   1.000E+00   1.000E+00         -           -           -  
   108          12     -5.7795     -5.7795    -38.2552   6.000E-01   5.000E-02   1.000E-01   1.100E+03           F           T   9.501E+02   1.000E+00   1.000E+00   1.000E+00   1.000E+00   1.000E+00   1.000E+00         -           -           -  
   109          12     -5.7476     -5.7476    -37.2808   6.000E-01   5.000E-02   1.000E-01   1.100E+03           F           T   9.501E+02   1.000E+00   1.000E+00   1.000E+00   1.000E+00   1.000E+00   1.000E+00         -           -           -  
   110          12     -5.7157     -5.7157    -36.3064   6.000E-01   5.000E-02   1.000E-01   1.100E+03           F           T   9.501E+02   1.000E+00   1.000E+00   1.000E+00   1.000E+00   1.000E+00   1.000E+00         -           -           -  
   111          12     -5.6838     -5.6838    -35.3321   6.000E-01   5.000E-02   1.000E-01   1.100E+03           F           T   9.501E+02   1.000E+00   1.000E+00   1.000E+00   1.000E+00   1.000E+00   1.000E+00         -           -           -  
   112          12     -5.6519     -5.6519    -34.3577   6.000E-01   5.000E-02   1.000E-01   1.100E+03           F           T   9.501E+02   1.000E+00   1.000E+00   1.000E+00   1.000E+00   1.000E+00   1.000E+00         -           -           -  
   113          12     -5.6201     -5.6201    -33.3833   6.000E-01   5.000E-02   1.000E-01   1.100E+03           F           T   9.501E+02   1.000E+00   1.000E+00   1.000E+00   1.000E+00   1.000E+00   1.000E+00         -           -           -  
   114          12     -5.5882     -5.5882    -32.4089   6.000E-01   5.000E-02   1.000E-01   1.100E+03           F           T   9.501E+02   1.000E+00   1.000E+00   1.000E+00   1.000E+00   1.000E+00   1.000E+00         -           -           -  
   115          12     -5.5563     -5.5563    -31.4346   6.000E-01   5.000E-02   1.000E-01   1.100E+03           F           T   9.501E+02   1.000E+00   1.000E+00   1.000E+00   1.000E+00   1.000E+00   1.000E+00         -           -           -  
   116          12     -5.5244     -5.5244    -30.4602   6.000E-01   5.000E-02   1.000E-01   1.100E+03           F           T   9.501E+02   1.000E+00   1.000E+00   1.000E+00   1.000E+00   1.000E+00   1.000E+00         -           -           -  
   117          12     -5.4925     -5.4925    -29.4858   6.000E-01   5.000E-02   1.000E-01   1.100E+03           F           T   9.501E+02   1.000E+00   1.000E+00   1.000E+00   1.000E+00   1.000E+00   1.000E+00         -           -           -  
   118          12     -5.4606     -5.4606    -28.5115   6.000E-01   5.000E-02   1.000E-01   1.100E+03           F           T   9.501E+02   1.000E+00   1.000E+00   1.000E+00   1.000E+00   1.000E+00   1.000E+00         -           -           -  
   119          12     -5.4287     -5.4287    -27.5371   6.000E-01   5.000E-02   1.000E-01   1.100E+03           F           T   9.501E+02   1.000E+00   1.000E+00   1.000E+00   1.000E+00   1.000E+00   1.000E+00         -           -           -  
   120          12     -5.3968     -5.3968    -26.5627   6.000E-01   5.000E-02   1.000E-01   1.100E+03           F           T   9.501E+02   1.000E+00   1.000E+00   1.000E+00   1.000E+00   1.000E+00   1.000E+00         -           -           -  
   121          12     -5.3649     -5.3649    -25.5884   6.000E-01   5.000E-02   1.000E-01   1.100E+03           F           T   9.501E+02   1.000E+00   1.000E+00   1.000E+00   1.000E+00   1.000E+00   1.000E+00         -           -           -  
   122          14      5.9835     -5.9835    -44.5005   6.000E-01   5.000E-02   0.000E+00   0.000E+00           F           T   4.871E+02   1.000E+00   1.000E+00   1.000E+00   1.000E+00   1.000E+00   1.000E+00         -           -           -  
   123          16      5.9071     -5.9071    -42.1526   6.000E-01   5.000E-02   0.000E+00   0.000E+00           F           T   9.501E+02   1.000E+00   1.000E+00   1.000E+00   1.000E+00   1.000E+00   1.000E+00         -           -           -  
   124          16      5.8752     -5.8752    -41.1783   6.000E-01   5.000E-02   0.000E+00   0.000E+00           F           T   9.501E+02   1.000E+00   1.000E+00   1.000E+00   1.000E+00   1.000E+00   1.000E+00         -           -           -  
   125          16      5.8433     -5.8433    -40.2039   6.000E-01   5.000E-02   0.000E+00   0.000E+00           F           T   9.501E+02   1.000E+00   1.000E+00   1.000E+00   1.000E+00   1.000E+00   1.000E+00         -           -           -  
   126          16      5.8114     -5.8114    -39.2295   6.000E-01   5.000E-02   1.000E-01   1.100E+03           F           T   9.501E+02   1.000E+00   1.000E+00   1.000E+00   1.000E+00   1.000E+00   1.000E+00         -           -           -  
   127          16      5.7795     -5.7795    -38.2552   6.000E-01   5.000E-02   1.000E-01   1.100E+03           F           T   9.501E+02   1.000E+00   1.000E+00   1.000E+00   1.000E+00   1.000E+00   1.000E+00         -           -           -  
   128          16      5.7476     -5.7476    -37.2808   6.000E-01   5.000E-02   1.000E-01   1.100E+03           F           T   9.501E+02   1.000E+00   1.000E+00   1.000E+00   1.000E+00   1.000E+00   1.000E+00         -           -           -  
   129          16      5.7157     -5.7157    -36.3064   6.000E-01   5.000E-02   1.000E-01   1.100E+03           F           T   9.501E+02   1.000E+00   1.000E+00   1.000E+00   1.000E+00   1.000E+00   1.000E+00         -           -           -  
   130          16      5.6838     -5.6838    -35.3321   6.000E-01   5.000E-02   1.000E-01   1.100E+03           F           T   9.501E+02   1.000E+00   1.000E+00   1.000E+00   1.000E+00   1.000E+00   1.000E+00         -           -           -  
   131          16      5.6519     -5.6519    -34.3577   6.000E-01   5.000E-02   1.000E-01   1.100E+03           F           T   9.501E+02   1.000E+00   1.000E+00   1.000E+00   1.000E+00   1.000E+00   1.000E+00         -           -           -  
   132          16      5.6201     -5.6201    -33.3833   6.000E-01   5.000E-02   1.000E-01   1.100E+03           F           T   9.501E+02   1.000E+00   1.000E+00   1.000E+00   1.000E+00   1.000E+00   1.000E+00         -           -           -  
   133          16      5.5882     -5.5882    -32.4089   6.000E-01   5.000E-02   1.000E-01   1.100E+03           F           T   9.501E+02   1.000E+00   1.000E+00   1.000E+00   1.000E+00   1.000E+00   1.000E+00         -           -           -  
   134          16      5.5563     -5.5563    -31.4346   6.000E-01   5.000E-02   1.000E-01   1.100E+03           F           T   9.501E+02   1.000E+00   1.000E+00   1.000E+00   1.000E+00   1.000E+00   1.000E+00         -           -           -  
   135          16      5.5244     -5.5244    -30.4602   6.000E-01   5.000E-02   1.000E-01   1.100E+03           F           T   9.501E+02   1.000E+00   1.000E+00   1.000E+00   1.000E+00   1.000E+00   1.000E+00         -           -           -  
   136          16      5.4925     -5.4925    -29.4858   6.000E-01   5.000E-02   1.000E-01   1.100E+03           F           T   9.501E+02   1.000E+00   1.000E+00   1.000E+00   1.000E+00   1.000E+00   1.000E+00         -           -           -  
   137          16      5.4606     -5.4606    -28.5115   6.000E-01   5.000E-02   1.000E-01   1.100E+03           F           T   9.501E+02   1.000E+00   1.000E+00   1.000E+00   1.000E+00   1.000E+00   1.000E+00         -           -           -  
   138          16      5.4287     -5.4287    -27.5371   6.000E-01   5.000E-02   1.000E-01   1.100E+03           F           T   9.501E+02   1.000E+00   1.000E+00   1.000E+00   1.000E+00   1.000E+00   1.000E+00         -           -           -  
   139          16      5.3968     -5.3968    -26.5627   6.000E-01   5.000E-02   1.000E-01   1.100E+03           F           T   9.501E+02   1.000E+00   1.000E+00   1.000E+00   1.000E+00   1.000E+00   1.000E+00         -           -           -  
   140          16      5.3649     -5.3649    -25.5884   6.000E-01   5.000E-02   1.000E-01   1.100E+03           F           T   9.501E+02   1.000E+00   1.000E+00   1.000E+00   1.000E+00   1.000E+00   1.000E+00         -           -           -  
   141          17      5.3009      5.3009    -23.6333   6.000E-01   3.500E-02   1.000E-01   1.100E+03           F           T   1.009E+03   1.000E+00   1.000E+00   1.000E+00   1.000E+00   1.000E+00   1.000E+00         -           -           -  
   142          17      5.2689      5.2689    -22.6525   6.000E-01   3.500E-02   1.000E-01   1.100E+03           F           T   1.009E+03   1.000E+00   1.000E+00   1.000E+00   1.000E+00   1.000E+00   1.000E+00         -           -           -  
   143          17      5.2368      5.2368    -21.6718   6.000E-01   3.500E-02   1.000E-01   1.100E+03           F           T   1.009E+03   1.000E+00   1.000E+00   1.000E+00   1.000E+00   1.000E+00   1.000E+00         -           -           -  
   144          17      5.2048      5.2048    -20.6910   6.000E-01   3.500E-02   1.000E-01   1.100E+03           F           T   1.009E+03   1.000E+00   1.000E+00   1.000E+00   1.000E+00   1.000E+00   1.000E+00         -           -           -  
   145          17      5.1727      5.1727    -19.7103   6.000E-01   3.500E-02   1.000E-01   1.100E+03           F           T   1.009E+03   1.000E+00   1.000E+00   1.000E+00   1.000E+00   1.000E+00   1.000E+00         -           -           -  
   146          17      5.1406      5.1406    -18.7295   6.000E-01   3.500E-02   1.000E-01   1.100E+03           F           T   1.009E+03   1.000E+00   1.000E+00   1.000E+00   1.000E+00   1.000E+00   1.000E+00         -           -           -  
   147          17      5.1086      5.1086    -17.7488   6.000E-01   3.500E-02   1.000E-01   1.100E+03           F           T   1.009E+03   1.000E+00   1.000E+00   1.000E+00   1.000E+00   1.000E+00   1.000E+00         -           -           -  
   148          17      5.0765      5.0765    -16.7680   6.000E-01   3.500E-02   1.000E-01   1.100E+03           F           T   1.009E+03   1.000E+00   1.000E+00   1.000E+00   1.000E+00   1.000E+00   1.000E+00         -           -           -  
   149          17      5.0444      5.0444    -15.7873   6.000E-01   3.500E-02   1.000E-01   1.100E+03           F           T   1.009E+03   1.000E+00   1.000E+00   1.000E+00   1.000E+00   1.000E+00   1.000E+00         -           -           -  
   150          17      5.0124      5.0124    -14.8065   6.000E-01   3.500E-02   1.000E-01   1.100E+03           F           T   1.009E+03   1.000E+00   1.000E+00   1.000E+00   1.000E+00   1.000E+00   1.000E+00         -           -           -  
   151          17      4.9803      4.9803    -13.8258   6.000E-01   3.500E-02   1.000E-01   1.100E+03           F           T   1.009E+03   1.000E+00   1.000E+00   1.000E+00   1.000E+00   1.000E+00   1.000E+00         -           -           -  
   152          17      4.9482      4.9482    -12.8450   6.000E-01   3.500E-02   1.000E-01   1.100E+03           F           T   1.009E+03   1.000E+00   1.000E+00   1.000E+00   1.000E+00   1.000E+00   1.000E+00         -           -           -  
   153          17      4.9162      4.9162    -11.8643   6.000E-01   3.500E-02   1.000E-01   1.100E+03           F           T   1.009E+03   1.000E+00   1.000E+00   1.000E+00   1.000E+00   1.000E+00   1.000E+00         -           -           -  
   154          17      4.8841      4.8841    -10.8835   6.000E-01   3.500E-02   1.000E-01   1.100E+03           F           T   1.009E+03   1.000E+00   1.000E+00   1.000E+00   1.000E+00   1.000E+00   1.000E+00         -           -           -  
   155          17      4.8521      4.8521     -9.9028   6.000E-01   3.500E-02   1.000E-01   1.100E+03           F           T   1.009E+03   1.000E+00   1.000E+00   1.000E+00   1.000E+00   1.000E+00   1.000E+00         -           -           -  
   156          18      4.7889      4.7889     -7.9720   6.000E-01   3.500E-02   1.000E-01   1.100E+03           F           T   9.776E+02   1.000E+00   1.000E+00   1.000E+00   1.000E+00   1.000E+00   1.000E+00         -           -           -  
   157          18      4.7579      4.7579     -7.0220   6.000E-01   3.500E-02   1.000E-01   1.100E+03           F           T   9.776E+02   1.000E+00   1.000E+00   1.000E+00   1.000E+00   1.000E+00   1.000E+00         -           -           -  
   158          18      4.7268      4.7268     -6.0720   6.000E-01   3.500E-02   1.000E-01   1.100E+03           F           T   9.776E+02   1.000E+00   1.000E+00   1.000E+00   1.000E+00   1.000E+00   1.000E+00         -           -           -  
   159          18      4.6957      4.6957     -5.1220   6.000E-01   3.500E-02   1.000E-01   1.100E+03           F           T   9.776E+02   1.000E+00   1.000E+00   1.000E+00   1.000E+00   1.000E+00   1.000E+00         -           -           -  
   160          18      4.6646      4.6646     -4.1720   6.000E-01   3.500E-02   1.000E-01   1.100E+03           F           T   9.776E+02   1.000E+00   1.000E+00   1.000E+00   1.000E+00   1.000E+00   1.000E+00         -           -           -  
   161          18      4.6336      4.6336     -3.2220   6.000E-01   3.500E-02   1.000E-01   1.100E+03           F           T   9.776E+02   1.000E+00   1.000E+00   1.000E+00   1.000E+00   1.000E+00   1.000E+00         -           -           -  
   162          18      4.6025      4.6025     -2.2720   6.000E-01   3.500E-02   1.000E-01   1.100E+03           F           T   9.776E+02   1.000E+00   1.000E+00   1.000E+00   1.000E+00   1.000E+00   1.000E+00         -           -           -  
   163          18      4.5714      4.5714     -1.3220   6.000E-01   3.500E-02   0.000E+00   0.000E+00           F           T   9.776E+02   1.000E+00   1.000E+00   1.000E+00   1.000E+00   1.000E+00   1.000E+00         -           -           -  
   164          18      4.5404      4.5404     -0.3720   6.000E-01   3.500E-02   0.000E+00   0.000E+00           F           T   3.824E+02   1.000E+00   1.000E+00   1.000E+00   1.000E+00   1.000E+00   1.000E+00         -           -           -  
   165          18      4.5093      4.5093      0.5780   6.000E-01   3.500E-02   0.000E+00   0.000E+00           F           F   0.000E+00   1.000E+00   1.000E+00   1.000E+00   1.000E+00   1.000E+00   1.000E+00         -           -           -  
   166          18      4.4782      4.4782      1.5280   6.000E-01   3.500E-02   0.000E+00   0.000E+00           F           F   0.000E+00   1.000E+00   1.000E+00   1.000E+00   1.000E+00   1.000E+00   1.000E+00         -           -           -  
   167          18      4.4471      4.4471      2.4780   6.000E-01   3.500E-02   0.000E+00   0.000E+00           F           F   0.000E+00   1.000E+00   1.000E+00   1.000E+00   1.000E+00   1.000E+00   1.000E+00         -           -           -  
   168          18      4.4161      4.4161      3.4280   6.000E-01   3.500E-02   0.000E+00   0.000E+00           F           F   0.000E+00   1.000E+00   1.000E+00   1.000E+00   1.000E+00   1.000E+00   1.000E+00         -           -           -  
   169          19      4.3543      4.3543      5.3174   6.000E-01   3.500E-02   0.000E+00   0.000E+00           F           F   0.000E+00   1.000E+00   1.000E+00   1.000E+00   1.000E+00   1.000E+00   1.000E+00         -           -           -  
   170          19      4.3235      4.3235      6.2568   6.000E-01   3.500E-02   0.000E+00   0.000E+00           F           F   0.000E+00   1.000E+00   1.000E+00   1.000E+00   1.000E+00   1.000E+00   1.000E+00         -           -           -  
   171          19      4.2927      4.2927      7.1963   6.000E-01   3.500E-02   0.000E+00   0.000E+00           F           F   0.000E+00   1.000E+00   1.000E+00   1.000E+00   1.000E+00   1.000E+00   1.000E+00         -           -           -  
   172          19      4.2620      4.2620      8.1357   6.000E-01   3.500E-02   0.000E+00   0.000E+00           F           F   0.000E+00   1.000E+00   1.000E+00   1.000E+00   1.000E+00   1.000E+00   1.000E+00         -           -           -  
   173          19      4.2312      4.2312      9.0751   6.000E-01   3.500E-02   0.000E+00   0.000E+00           F           F   0.000E+00   1.000E+00   1.000E+00   1.000E+00   1.000E+00   1.000E+00   1.000E+00         -           -           -  
   174          19      4.2005      4.2005     10.0145   6.000E-01   3.500E-02   0.000E+00   0.000E+00           F           F   0.000E+00   1.000E+00   1.000E+00   1.000E+00   1.000E+00   1.000E+00   1.000E+00         -           -           -  
   175          19      4.1697      4.1697     10.9539   6.000E-01   3.500E-02   0.000E+00   0.000E+00           F           F   0.000E+00   1.000E+00   1.000E+00   1.000E+00   1.000E+00   1.000E+00   1.000E+00         -           -           -  
   176          19      4.1390      4.1390     11.8933   6.000E-01   3.500E-02   0.000E+00   0.000E+00           F           F   0.000E+00   1.000E+00   1.000E+00   1.000E+00   1.000E+00   1.000E+00   1.000E+00         -           -           -  
   177          19      4.1082      4.1082     12.8328   6.000E-01   3.500E-02   0.000E+00   0.000E+00           F           F   0.000E+00   1.000E+00   1.000E+00   1.000E+00   1.000E+00   1.000E+00   1.000E+00         -           -           -  
   178          19      4.0775      4.0775     13.7722   6.000E-01   3.500E-02   0.000E+00   0.000E+00           F           F   0.000E+00   1.000E+00   1.000E+00   1.000E+00   1.000E+00   1.000E+00   1.000E+00         -           -           -  
   179          19      4.0468      4.0468     14.7116   6.000E-01   3.500E-02   0.000E+00   0.000E+00           F           F   0.000E+00   1.000E+00   1.000E+00   1.000E+00   1.000E+00   1.000E+00   1.000E+00         -           -           -  
   180          21     -5.3009      5.3009    -23.6333   6.000E-01   3.500E-02   1.000E-01   1.100E+03           F           T   1.009E+03   1.000E+00   1.000E+00   1.000E+00   1.000E+00   1.000E+00   1.000E+00         -           -           -  
   181          21     -5.2689      5.2689    -22.6525   6.000E-01   3.500E-02   1.000E-01   1.100E+03           F           T   1.009E+03   1.000E+00   1.000E+00   1.000E+00   1.000E+00   1.000E+00   1.000E+00         -           -           -  
   182          21     -5.2368      5.2368    -21.6718   6.000E-01   3.500E-02   1.000E-01   1.100E+03           F           T   1.009E+03   1.000E+00   1.000E+00   1.000E+00   1.000E+00   1.000E+00   1.000E+00         -           -           -  
   183          21     -5.2048      5.2048    -20.6910   6.000E-01   3.500E-02   1.000E-01   1.100E+03           F           T   1.009E+03   1.000E+00   1.000E+00   1.000E+00   1.000E+00   1.000E+00   1.000E+00         -           -           -  
   184          21     -5.1727      5.1727    -19.7103   6.000E-01   3.500E-02   1.000E-01   1.100E+03           F           T   1.009E+03   1.000E+00   1.000E+00   1.000E+00   1.000E+00   1.000E+00   1.000E+00         -           -           -  
   185          21     -5.1406      5.1406    -18.7295   6.000E-01   3.500E-02   1.000E-01   1.100E+03           F           T   1.009E+03   1.000E+00   1.000E+00   1.000E+00   1.000E+00   1.000E+00   1.000E+00         -           -           -  
   186          21     -5.1086      5.1086    -17.7488   6.000E-01   3.500E-02   1.000E-01   1.100E+03           F           T   1.009E+03   1.000E+00   1.000E+00   1.000E+00   1.000E+00   1.000E+00   1.000E+00         -           -           -  
   187          21     -5.0765      5.0765    -16.7680   6.000E-01   3.500E-02   1.000E-01   1.100E+03           F           T   1.009E+03   1.000E+00   1.000E+00   1.000E+00   1.000E+00   1.000E+00   1.000E+00         -           -           -  
   188          21     -5.0444      5.0444    -15.7873   6.000E-01   3.500E-02   1.000E-01   1.100E+03           F           T   1.009E+03   1.000E+00   1.000E+00   1.000E+00   1.000E+00   1.000E+00   1.000E+00         -           -           -  
   189          21     -5.0124      5.0124    -14.8065   6.000E-01   3.500E-02   1.000E-01   1.100E+03           F           T   1.009E+03   1.000E+00   1.000E+00   1.000E+00   1.000E+00   1.000E+00   1.000E+00         -           -           -  
   190          21     -4.9803      4.9803    -13.8258   6.000E-01   3.500E-02   1.000E-01   1.100E+03           F           T   1.009E+03   1.000E+00   1.000E+00   1.000E+00   1.000E+00   1.000E+00   1.000E+00         -           -           -  
   191          21     -4.9482      4.9482    -12.8450   6.000E-01   3.500E-02   1.000E-01   1.100E+03           F           T   1.009E+03   1.000E+00   1.000E+00   1.000E+00   1.000E+00   1.000E+00   1.000E+00         -           -           -  
   192          21     -4.9162      4.9162    -11.8643   6.000E-01   3.500E-02   1.000E-01   1.100E+03           F           T   1.009E+03   1.000E+00   1.000E+00   1.000E+00   1.000E+00   1.000E+00   1.000E+00         -           -           -  
   193          21     -4.8841      4.8841    -10.8835   6.000E-01   3.500E-02   1.000E-01   1.100E+03           F           T   1.009E+03   1.000E+00   1.000E+00   1.000E+00   1.000E+00   1.000E+00   1.000E+00         -           -           -  
   194          21     -4.8521      4.8521     -9.9028   6.000E-01   3.500E-02   1.000E-01   1.100E+03           F           T   1.009E+03   1.000E+00   1.000E+00   1.000E+00   1.000E+00   1.000E+00   1.000E+00         -           -           -  
   195          22     -4.7889      4.7889     -7.9720   6.000E-01   3.500E-02   1.000E-01   1.100E+03           F           T   9.776E+02   1.000E+00   1.000E+00   1.000E+00   1.000E+00   1.000E+00   1.000E+00         -           -           -  
   196          22     -4.7579      4.7579     -7.0220   6.000E-01   3.500E-02   1.000E-01   1.100E+03           F           T   9.776E+02   1.000E+00   1.000E+00   1.000E+00   1.000E+00   1.000E+00   1.000E+00         -           -           -  
   197          22     -4.7268      4.7268     -6.0720   6.000E-01   3.500E-02   1.000E-01   1.100E+03           F           T   9.776E+02   1.000E+00   1.000E+00   1.000E+00   1.000E+00   1.000E+00   1.000E+00         -           -           -  
   198          22     -4.6957      4.6957     -5.1220   6.000E-01   3.500E-02   1.000E-01   1.100E+03           F           T   9.776E+02   1.000E+00   1.000E+00   1.000E+00   1.000E+00   1.000E+00   1.000E+00         -           -           -  
   199          22     -4.6646      4.6646     -4.1720   6.000E-01   3.500E-02   1.000E-01   1.100E+03           F           T   9.776E+02   1.000E+00   1.000E+00   1.000E+00   1.000E+00   1.000E+00   1.000E+00         -           -           -  
   200          22     -4.6336      4.6336     -3.2220   6.000E-01   3.500E-02   1.000E-01   1.100E+03           F           T   9.776E+02   1.000E+00   1.000E+00   1.000E+00   1.000E+00   1.000E+00   1.000E+00         -           -           -  
   201          22     -4.6025      4.6025     -2.2720   6.000E-01   3.500E-02   1.000E-01   1.100E+03           F           T   9.776E+02   1.000E+00   1.000E+00   1.000E+00   1.000E+00   1.000E+00   1.000E+00         -           -           -  
   202          22     -4.5714      4.5714     -1.3220   6.000E-01   3.500E-02   0.000E+00   0.000E+00           F           T   9.776E+02   1.000E+00   1.000E+00   1.000E+00   1.000E+00   1.000E+00   1.000E+00         -           -           -  
   203          22     -4.5404      4.5404     -0.3720   6.000E-01   3.500E-02   0.000E+00   0.000E+00           F           T   3.824E+02   1.000E+00   1.000E+00   1.000E+00   1.000E+00   1.000E+00   1.000E+00         -           -           -  
   204          22     -4.5093      4.5093      0.5780   6.000E-01   3.500E-02   0.000E+00   0.000E+00           F           F   0.000E+00   1.000E+00   1.000E+00   1.000E+00   1.000E+00   1.000E+00   1.000E+00         -           -           -  
   205          22     -4.4782      4.4782      1.5280   6.000E-01   3.500E-02   0.000E+00   0.000E+00           F           F   0.000E+00   1.000E+00   1.000E+00   1.000E+00   1.000E+00   1.000E+00   1.000E+00         -           -           -  
   206          22     -4.4471      4.4471      2.4780   6.000E-01   3.500E-02   0.000E+00   0.000E+00           F           F   0.000E+00   1.000E+00   1.000E+00   1.000E+00   1.000E+00   1.000E+00   1.000E+00         -           -           -  
   207          22     -4.4161      4.4161      3.4280   6.000E-01   3.500E-02   0.000E+00   0.000E+00           F           F   0.000E+00   1.000E+00   1.000E+00   1.000E+00   1.000E+00   1.000E+00   1.000E+00         -           -           -  
   208          23     -4.3543      4.3543      5.3174   6.000E-01   3.500E-02   0.000E+00   0.000E+00           F           F   0.000E+00   1.000E+00   1.000E+00   1.000E+00   1.000E+00   1.000E+00   1.000E+00         -           -           -  
   209          23     -4.3235      4.3235      6.2568   6.000E-01   3.500E-02   0.000E+00   0.000E+00           F           F   0.000E+00   1.000E+00   1.000E+00   1.000E+00   1.000E+00   1.000E+00   1.000E+00         -           -           -  
   210          23     -4.2927      4.2927      7.1963   6.000E-01   3.500E-02   0.000E+00   0.000E+00           F           F   0.000E+00   1.000E+00   1.000E+00   1.000E+00   1.000E+00   1.000E+00   1.000E+00         -           -           -  
   211          23     -4.2620      4.2620      8.1357   6.000E-01   3.500E-02   0.000E+00   0.000E+00           F           F   0.000E+00   1.000E+00   1.000E+00   1.000E+00   1.000E+00   1.000E+00   1.000E+00         -           -           -  
   212          23     -4.2312      4.2312      9.0751   6.000E-01   3.500E-02   0.000E+00   0.000E+00           F           F   0.000E+00   1.000E+00   1.000E+00   1.000E+00   1.000E+00   1.000E+00   1.000E+00         -           -           -  
   213          23     -4.2005      4.2005     10.0145   6.000E-01   3.500E-02   0.000E+00   0.000E+00           F           F   0.000E+00   1.000E+00   1.000E+00   1.000E+00   1.000E+00   1.000E+00   1.000E+00         -           -           -  
   214          23     -4.1697      4.1697     10.9539   6.000E-01   3.500E-02   0.000E+00   0.000E+00           F           F   0.000E+00   1.000E+00   1.000E+00   1.000E+00   1.000E+00   1.000E+00   1.000E+00         -           -           -  
   215          23     -4.1390      4.1390     11.8933   6.000E-01   3.500E-02   0.000E+00   0.000E+00           F           F   0.000E+00   1.000E+00   1.000E+00   1.000E+00   1.000E+00   1.000E+00   1.000E+00         -           -           -  
   216          23     -4.1082      4.1082     12.8328   6.000E-01   3.500E-02   0.000E+00   0.000E+00           F           F   0.000E+00   1.000E+00   1.000E+00   1.000E+00   1.000E+00   1.000E+00   1.000E+00         -           -           -  
   217          23     -4.0775      4.0775     13.7722   6.000E-01   3.500E-02   0.000E+00   0.000E+00           F           F   0.000E+00   1.000E+00   1.000E+00   1.000E+00   1.000E+00   1.000E+00   1.000E+00         -           -           -  
   218          23     -4.0468      4.0468     14.7116   6.000E-01   3.500E-02   0.000E+00   0.000E+00           F           F   0.000E+00   1.000E+00   1.000E+00   1.000E+00   1.000E+00   1.000E+00   1.000E+00         -           -           -  
   219          25     -5.3009     -5.3009    -23.6333   6.000E-01   3.500E-02   1.000E-01   1.100E+03           F           T   1.009E+03   1.000E+00   1.000E+00   1.000E+00   1.000E+00   1.000E+00   1.000E+00         -           -           -  
   220          25     -5.2689     -5.2689    -22.6525   6.000E-01   3.500E-02   1.000E-01   1.100E+03           F           T   1.009E+03   1.000E+00   1.000E+00   1.000E+00   1.000E+00   1.000E+00   1.000E+00         -           -           -  
   221          25     -5.2368     -5.2368    -21.6718   6.000E-01   3.500E-02   1.000E-01   1.100E+03           F           T   1.009E+03   1.000E+00   1.000E+00   1.000E+00   1.000E+00   1.000E+00   1.000E+00         -           -           -  
   222          25     -5.2048     -5.2048    -20.6910   6.000E-01   3.500E-02   1.000E-01   1.100E+03           F           T   1.009E+03   1.000E+00   1.000E+00   1.000E+00   1.000E+00   1.000E+00   1.000E+00         -           -           -  
   223          25     -5.1727     -5.1727    -19.7103   6.000E-01   3.500E-02   1.000E-01   1.100E+03           F           T   1.009E+03   1.000E+00   1.000E+00   1.000E+00   1.000E+00   1.000E+00   1.000E+00         -           -           -  
   224          25     -5.1406     -5.1406    -18.7295   6.000E-01   3.500E-02   1.000E-01   1.100E+03           F           T   1.009E+03   1.000E+00   1.000E+00   1.000E+00   1.000E+00   1.000E+00   1.000E+00         -           -           -  
   225          25     -5.1086     -5.1086    -17.7488   6.000E-01   3.500E-02   1.000E-01   1.100E+03           F           T   1.009E+03   1.000E+00   1.000E+00   1.000E+00   1.000E+00   1.000E+00   1.000E+00         -           -           -  
   226          25     -5.0765     -5.0765    -16.7680   6.000E-01   3.500E-02   1.000E-01   1.100E+03           F           T   1.009E+03   1.000E+00   1.000E+00   1.000E+00   1.000E+00   1.000E+00   1.000E+00         -           -           -  
   227          25     -5.0444     -5.0444    -15.7873   6.000E-01   3.500E-02   1.000E-01   1.100E+03           F           T   1.009E+03   1.000E+00   1.000E+00   1.000E+00   1.000E+00   1.000E+00   1.000E+00         -           -           -  
   228          25     -5.0124     -5.0124    -14.8065   6.000E-01   3.500E-02   1.000E-01   1.100E+03           F           T   1.009E+03   1.000E+00   1.000E+00   1.000E+00   1.000E+00   1.000E+00   1.000E+00         -           -           -  
   229          25     -4.9803     -4.9803    -13.8258   6.000E-01   3.500E-02   1.000E-01   1.100E+03           F           T   1.009E+03   1.000E+00   1.000E+00   1.000E+00   1.000E+00   1.000E+00   1.000E+00         -           -           -  
   230          25     -4.9482     -4.9482    -12.8450   6.000E-01   3.500E-02   1.000E-01   1.100E+03           F           T   1.009E+03   1.000E+00   1.000E+00   1.000E+00   1.000E+00   1.000E+00   1.000E+00         -           -           -  
   231          25     -4.9162     -4.9162    -11.8643   6.000E-01   3.500E-02   1.000E-01   1.100E+03           F           T   1.009E+03   1.000E+00   1.000E+00   1.000E+00   1.000E+00   1.000E+00   1.000E+00         -           -           -  
   232          25     -4.8841     -4.8841    -10.8835   6.000E-01   3.500E-02   1.000E-01   1.100E+03           F           T   1.009E+03   1.000E+00   1.000E+00   1.000E+00   1.000E+00   1.000E+00   1.000E+00         -           -           -  
   233          25     -4.8521     -4.8521     -9.9028   6.000E-01   3.500E-02   1.000E-01   1.100E+03           F           T   1.009E+03   1.000E+00   1.000E+00   1.000E+00   1.000E+00   1.000E+00   1.000E+00         -           -           -  
   234          26     -4.7889     -4.7889     -7.9720   6.000E-01   3.500E-02   1.000E-01   1.100E+03           F           T   9.776E+02   1.000E+00   1.000E+00   1.000E+00   1.000E+00   1.000E+00   1.000E+00         -           -           -  
   235          26     -4.7579     -4.7579     -7.0220   6.000E-01   3.500E-02   1.000E-01   1.100E+03           F           T   9.776E+02   1.000E+00   1.000E+00   1.000E+00   1.000E+00   1.000E+00   1.000E+00         -           -           -  
   236          26     -4.7268     -4.7268     -6.0720   6.000E-01   3.500E-02   1.000E-01   1.100E+03           F           T   9.776E+02   1.000E+00   1.000E+00   1.000E+00   1.000E+00   1.000E+00   1.000E+00         -           -           -  
   237          26     -4.6957     -4.6957     -5.1220   6.000E-01   3.500E-02   1.000E-01   1.100E+03           F           T   9.776E+02   1.000E+00   1.000E+00   1.000E+00   1.000E+00   1.000E+00   1.000E+00         -           -           -  
   238          26     -4.6646     -4.6646     -4.1720   6.000E-01   3.500E-02   1.000E-01   1.100E+03           F           T   9.776E+02   1.000E+00   1.000E+00   1.000E+00   1.000E+00   1.000E+00   1.000E+00         -           -           -  
   239          26     -4.6336     -4.6336     -3.2220   6.000E-01   3.500E-02   1.000E-01   1.100E+03           F           T   9.776E+02   1.000E+00   1.000E+00   1.000E+00   1.000E+00   1.000E+00   1.000E+00         -           -           -  
   240          26     -4.6025     -4.6025     -2.2720   6.000E-01   3.500E-02   1.000E-01   1.100E+03           F           T   9.776E+02   1.000E+00   1.000E+00   1.000E+00   1.000E+00   1.000E+00   1.000E+00         -           -           -  
   241          26     -4.5714     -4.5714     -1.3220   6.000E-01   3.500E-02   0.000E+00   0.000E+00           F           T   9.776E+02   1.000E+00   1.000E+00   1.000E+00   1.000E+00   1.000E+00   1.000E+00         -           -           -  
   242          26     -4.5404     -4.5404     -0.3720   6.000E-01   3.500E-02   0.000E+00   0.000E+00           F           T   3.824E+02   1.000E+00   1.000E+00   1.000E+00   1.000E+00   1.000E+00   1.000E+00         -           -           -  
   243          26     -4.5093     -4.5093      0.5780   6.000E-01   3.500E-02   0.000E+00   0.000E+00           F           F   0.000E+00   1.000E+00   1.000E+00   1.000E+00   1.000E+00   1.000E+00   1.000E+00         -           -           -  
   244          26     -4.4782     -4.4782      1.5280   6.000E-01   3.500E-02   0.000E+00   0.000E+00           F           F   0.000E+00   1.000E+00   1.000E+00   1.000E+00   1.000E+00   1.000E+00   1.000E+00         -           -           -  
   245          26     -4.4471     -4.4471      2.4780   6.000E-01   3.500E-02   0.000E+00   0.000E+00           F           F   0.000E+00   1.000E+00   1.000E+00   1.000E+00   1.000E+00   1.000E+00   1.000E+00         -           -           -  
   246          26     -4.4161     -4.4161      3.4280   6.000E-01   3.500E-02   0.000E+00   0.000E+00           F           F   0.000E+00   1.000E+00   1.000E+00   1.000E+00   1.000E+00   1.000E+00   1.000E+00         -           -           -  
   247          27     -4.3543     -4.3543      5.3174   6.000E-01   3.500E-02   0.000E+00   0.000E+00           F           F   0.000E+00   1.000E+00   1.000E+00   1.000E+00   1.000E+00   1.000E+00   1.000E+00         -           -           -  
   248          27     -4.3235     -4.3235      6.2568   6.000E-01   3.500E-02   0.000E+00   0.000E+00           F           F   0.000E+00   1.000E+00   1.000E+00   1.000E+00   1.000E+00   1.000E+00   1.000E+00         -           -           -  
   249          27     -4.2927     -4.2927      7.1963   6.000E-01   3.500E-02   0.000E+00   0.000E+00           F           F   0.000E+00   1.000E+00   1.000E+00   1.000E+00   1.000E+00   1.000E+00   1.000E+00         -           -           -  
   250          27     -4.2620     -4.2620      8.1357   6.000E-01   3.500E-02   0.000E+00   0.000E+00           F           F   0.000E+00   1.000E+00   1.000E+00   1.000E+00   1.000E+00   1.000E+00   1.000E+00         -           -           -  
   251          27     -4.2312     -4.2312      9.0751   6.000E-01   3.500E-02   0.000E+00   0.000E+00           F           F   0.000E+00   1.000E+00   1.000E+00   1.000E+00   1.000E+00   1.000E+00   1.000E+00         -           -           -  
   252          27     -4.2005     -4.2005     10.0145   6.000E-01   3.500E-02   0.000E+00   0.000E+00           F           F   0.000E+00   1.000E+00   1.000E+00   1.000E+00   1.000E+00   1.000E+00   1.000E+00         -           -           -  
   253          27     -4.1697     -4.1697     10.9539   6.000E-01   3.500E-02   0.000E+00   0.000E+00           F           F   0.000E+00   1.000E+00   1.000E+00   1.000E+00   1.000E+00   1.000E+00   1.000E+00         -           -           -  
   254          27     -4.1390     -4.1390     11.8933   6.000E-01   3.500E-02   0.000E+00   0.000E+00           F           F   0.000E+00   1.000E+00   1.000E+00   1.000E+00   1.000E+00   1.000E+00   1.000E+00         -           -           -  
   255          27     -4.1082     -4.1082     12.8328   6.000E-01   3.500E-02   0.000E+00   0.000E+00           F           F   0.000E+00   1.000E+00   1.000E+00   1.000E+00   1.000E+00   1.000E+00   1.000E+00         -           -           -  
   256          27     -4.0775     -4.0775     13.7722   6.000E-01   3.500E-02   0.000E+00   0.000E+00           F           F   0.000E+00   1.000E+00   1.000E+00   1.000E+00   1.000E+00   1.000E+00   1.000E+00         -           -           -  
   257          27     -4.0468     -4.0468     14.7116   6.000E-01   3.500E-02   0.000E+00   0.000E+00           F           F   0.000E+00   1.000E+00   1.000E+00   1.000E+00   1.000E+00   1.000E+00   1.000E+00         -           -           -  
   258          29      5.3009     -5.3009    -23.6333   6.000E-01   3.500E-02   1.000E-01   1.100E+03           F           T   1.009E+03   1.000E+00   1.000E+00   1.000E+00   1.000E+00   1.000E+00   1.000E+00         -           -           -  
   259          29      5.2689     -5.2689    -22.6525   6.000E-01   3.500E-02   1.000E-01   1.100E+03           F           T   1.009E+03   1.000E+00   1.000E+00   1.000E+00   1.000E+00   1.000E+00   1.000E+00         -           -           -  
   260          29      5.2368     -5.2368    -21.6718   6.000E-01   3.500E-02   1.000E-01   1.100E+03           F           T   1.009E+03   1.000E+00   1.000E+00   1.000E+00   1.000E+00   1.000E+00   1.000E+00         -           -           -  
   261          29      5.2048     -5.2048    -20.6910   6.000E-01   3.500E-02   1.000E-01   1.100E+03           F           T   1.009E+03   1.000E+00   1.000E+00   1.000E+00   1.000E+00   1.000E+00   1.000E+00         -           -           -  
   262          29      5.1727     -5.1727    -19.7103   6.000E-01   3.500E-02   1.000E-01   1.100E+03           F           T   1.009E+03   1.000E+00   1.000E+00   1.000E+00   1.000E+00   1.000E+00   1.000E+00         -           -           -  
   263          29      5.1406     -5.1406    -18.7295   6.000E-01   3.500E-02   1.000E-01   1.100E+03           F           T   1.009E+03   1.000E+00   1.000E+00   1.000E+00   1.000E+00   1.000E+00   1.000E+00         -           -           -  
   264          29      5.1086     -5.1086    -17.7488   6.000E-01   3.500E-02   1.000E-01   1.100E+03           F           T   1.009E+03   1.000E+00   1.000E+00   1.000E+00   1.000E+00   1.000E+00   1.000E+00         -           -           -  
   265          29      5.0765     -5.0765    -16.7680   6.000E-01   3.500E-02   1.000E-01   1.100E+03           F           T   1.009E+03   1.000E+00   1.000E+00   1.000E+00   1.000E+00   1.000E+00   1.000E+00         -           -           -  
   266          29      5.0444     -5.0444    -15.7873   6.000E-01   3.500E-02   1.000E-01   1.100E+03           F           T   1.009E+03   1.000E+00   1.000E+00   1.000E+00   1.000E+00   1.000E+00   1.000E+00         -           -           -  
   267          29      5.0124     -5.0124    -14.8065   6.000E-01   3.500E-02   1.000E-01   1.100E+03           F           T   1.009E+03   1.000E+00   1.000E+00   1.000E+00   1.000E+00   1.000E+00   1.000E+00         -           -           -  
   268          29      4.9803     -4.9803    -13.8258   6.000E-01   3.500E-02   1.000E-01   1.100E+03           F           T   1.009E+03   1.000E+00   1.000E+00   1.000E+00   1.000E+00   1.000E+00   1.000E+00         -           -           -  
   269          29      4.9482     -4.9482    -12.8450   6.000E-01   3.500E-02   1.000E-01   1.100E+03           F           T   1.009E+03   1.000E+00   1.000E+00   1.000E+00   1.000E+00   1.000E+00   1.000E+00         -           -           -  
   270          29      4.9162     -4.9162    -11.8643   6.000E-01   3.500E-02   1.000E-01   1.100E+03           F           T   1.009E+03   1.000E+00   1.000E+00   1.000E+00   1.000E+00   1.000E+00   1.000E+00         -           -           -  
   271          29      4.8841     -4.8841    -10.8835   6.000E-01   3.500E-02   1.000E-01   1.100E+03           F           T   1.009E+03   1.000E+00   1.000E+00   1.000E+00   1.000E+00   1.000E+00   1.000E+00         -           -           -  
   272          29      4.8521     -4.8521     -9.9028   6.000E-01   3.500E-02   1.000E-01   1.100E+03           F           T   1.009E+03   1.000E+00   1.000E+00   1.000E+00   1.000E+00   1.000E+00   1.000E+00         -           -           -  
   273          30      4.7889     -4.7889     -7.9720   6.000E-01   3.500E-02   1.000E-01   1.100E+03           F           T   9.776E+02   1.000E+00   1.000E+00   1.000E+00   1.000E+00   1.000E+00   1.000E+00         -           -           -  
   274          30      4.7579     -4.7579     -7.0220   6.000E-01   3.500E-02   1.000E-01   1.100E+03           F           T   9.776E+02   1.000E+00   1.000E+00   1.000E+00   1.000E+00   1.000E+00   1.000E+00         -           -           -  
   275          30      4.7268     -4.7268     -6.0720   6.000E-01   3.500E-02   1.000E-01   1.100E+03           F           T   9.776E+02   1.000E+00   1.000E+00   1.000E+00   1.000E+00   1.000E+00   1.000E+00         -           -           -  
   276          30      4.6957     -4.6957     -5.1220   6.000E-01   3.500E-02   1.000E-01   1.100E+03           F           T   9.776E+02   1.000E+00   1.000E+00   1.000E+00   1.000E+00   1.000E+00   1.000E+00         -           -           -  
   277          30      4.6646     -4.6646     -4.1720   6.000E-01   3.500E-02   1.000E-01   1.100E+03           F           T   9.776E+02   1.000E+00   1.000E+00   1.000E+00   1.000E+00   1.000E+00   1.000E+00         -           -           -  
   278          30      4.6336     -4.6336     -3.2220   6.000E-01   3.500E-02   1.000E-01   1.100E+03           F           T   9.776E+02   1.000E+00   1.000E+00   1.000E+00   1.000E+00   1.000E+00   1.000E+00         -           -           -  
   279          30      4.6025     -4.6025     -2.2720   6.000E-01   3.500E-02   1.000E-01   1.100E+03           F           T   9.776E+02   1.000E+00   1.000E+00   1.000E+00   1.000E+00   1.000E+00   1.000E+00         -           -           -  
   280          30      4.5714     -4.5714     -1.3220   6.000E-01   3.500E-02   0.000E+00   0.000E+00           F           T   9.776E+02   1.000E+00   1.000E+00   1.000E+00   1.000E+00   1.000E+00   1.000E+00         -           -           -  
   281          30      4.5404     -4.5404     -0.3720   6.000E-01   3.500E-02   0.000E+00   0.000E+00           F           T   3.824E+02   1.000E+00   1.000E+00   1.000E+00   1.000E+00   1.000E+00   1.000E+00         -           -           -  
   282          30      4.5093     -4.5093      0.5780   6.000E-01   3.500E-02   0.000E+00   0.000E+00           F           F   0.000E+00   1.000E+00   1.000E+00   1.000E+00   1.000E+00   1.000E+00   1.000E+00         -           -           -  
   283          30      4.4782     -4.4782      1.5280   6.000E-01   3.500E-02   0.000E+00   0.000E+00           F           F   0.000E+00   1.000E+00   1.000E+00   1.000E+00   1.000E+00   1.000E+00   1.000E+00         -           -           -  
   284          30      4.4471     -4.4471      2.4780   6.000E-01   3.500E-02   0.000E+00   0.000E+00           F           F   0.000E+00   1.000E+00   1.000E+00   1.000E+00   1.000E+00   1.000E+00   1.000E+00         -           -           -  
   285          30      4.4161     -4.4161      3.4280   6.000E-01   3.500E-02   0.000E+00   0.000E+00           F           F   0.000E+00   1.000E+00   1.000E+00   1.000E+00   1.000E+00   1.000E+00   1.000E+00         -           -           -  
   286          31      4.3543     -4.3543      5.3174   6.000E-01   3.500E-02   0.000E+00   0.000E+00           F           F   0.000E+00   1.000E+00   1.000E+00   1.000E+00   1.000E+00   1.000E+00   1.000E+00         -           -           -  
   287          31      4.3235     -4.3235      6.2568   6.000E-01   3.500E-02   0.000E+00   0.000E+00           F           F   0.000E+00   1.000E+00   1.000E+00   1.000E+00   1.000E+00   1.000E+00   1.000E+00         -           -           -  
   288          31      4.2927     -4.2927      7.1963   6.000E-01   3.500E-02   0.000E+00   0.000E+00           F           F   0.000E+00   1.000E+00   1.000E+00   1.000E+00   1.000E+00   1.000E+00   1.000E+00         -           -           -  
   289          31      4.2620     -4.2620      8.1357   6.000E-01   3.500E-02   0.000E+00   0.000E+00           F           F   0.000E+00   1.000E+00   1.000E+00   1.000E+00   1.000E+00   1.000E+00   1.000E+00         -           -           -  
   290          31      4.2312     -4.2312      9.0751   6.000E-01   3.500E-02   0.000E+00   0.000E+00           F           F   0.000E+00   1.000E+00   1.000E+00   1.000E+00   1.000E+00   1.000E+00   1.000E+00         -           -           -  
   291          31      4.2005     -4.2005     10.0145   6.000E-01   3.500E-02   0.000E+00   0.000E+00           F           F   0.000E+00   1.000E+00   1.000E+00   1.000E+00   1.000E+00   1.000E+00   1.000E+00         -           -           -  
   292          31      4.1697     -4.1697     10.9539   6.000E-01   3.500E-02   0.000E+00   0.000E+00           F           F   0.000E+00   1.000E+00   1.000E+00   1.000E+00   1.000E+00   1.000E+00   1.000E+00         -           -           -  
   293          31      4.1390     -4.1390     11.8933   6.000E-01   3.500E-02   0.000E+00   0.000E+00           F           F   0.000E+00   1.000E+00   1.000E+00   1.000E+00   1.000E+00   1.000E+00   1.000E+00         -           -           -  
   294          31      4.1082     -4.1082     12.8328   6.000E-01   3.500E-02   0.000E+00   0.000E+00           F           F   0.000E+00   1.000E+00   1.000E+00   1.000E+00   1.000E+00   1.000E+00   1.000E+00         -           -           -  
   295          31      4.0775     -4.0775     13.7722   6.000E-01   3.500E-02   0.000E+00   0.000E+00           F           F   0.000E+00   1.000E+00   1.000E+00   1.000E+00   1.000E+00   1.000E+00   1.000E+00         -           -           -  
   296          31      4.0468     -4.0468     14.7116   6.000E-01   3.500E-02   0.000E+00   0.000E+00           F           F   0.000E+00   1.000E+00   1.000E+00   1.000E+00   1.000E+00   1.000E+00   1.000E+00         -           -           -  
   297          33      4.9725      5.9670    -44.0010   4.000E-01   2.000E-02   0.000E+00   0.000E+00           F           F   0.000E+00   1.000E+00   1.000E+00   1.000E+00   1.000E+00   1.000E+00   1.000E+00         -           -           -  
   298          33      3.9780      5.9670    -44.0010   4.000E-01   2.000E-02   0.000E+00   0.000E+00           F           F   0.000E+00   1.000E+00   1.000E+00   1.000E+00   1.000E+00   1.000E+00   1.000E+00         -           -           -  
   299          33      2.9835      5.9670    -44.0010   4.000E-01   2.000E-02   0.000E+00   0.000E+00           F           F   0.000E+00   1.000E+00   1.000E+00   1.000E+00   1.000E+00   1.000E+00   1.000E+00         -           -           -  
   300          33      1.9890      5.9670    -44.0010   4.000E-01   2.000E-02   0.000E+00   0.000E+00           F           F   0.000E+00   1.000E+00   1.000E+00   1.000E+00   1.000E+00   1.000E+00   1.000E+00         -           -           -  
   301          33      0.9945      5.9670    -44.0010   4.000E-01   2.000E-02   0.000E+00   0.000E+00           F           F   0.000E+00   1.000E+00   1.000E+00   1.000E+00   1.000E+00   1.000E+00   1.000E+00         -           -           -  
   302          33      0.0000      5.9670    -44.0010   4.000E-01   2.000E-02   0.000E+00   0.000E+00           F           F   0.000E+00   1.000E+00   1.000E+00   1.000E+00   1.000E+00   1.000E+00   1.000E+00         -           -           -  
   303          33     -0.9945      5.9670    -44.0010   4.000E-01   2.000E-02   0.000E+00   0.000E+00           F           F   0.000E+00   1.000E+00   1.000E+00   1.000E+00   1.000E+00   1.000E+00   1.000E+00         -           -           -  
   304          33     -1.9890      5.9670    -44.0010   4.000E-01   2.000E-02   0.000E+00   0.000E+00           F           F   0.000E+00   1.000E+00   1.000E+00   1.000E+00   1.000E+00   1.000E+00   1.000E+00         -           -           -  
   305          33     -2.9835      5.9670    -44.0010   4.000E-01   2.000E-02   0.000E+00   0.000E+00           F           F   0.000E+00   1.000E+00   1.000E+00   1.000E+00   1.000E+00   1.000E+00   1.000E+00         -           -           -  
   306          33     -3.9780      5.9670    -44.0010   4.000E-01   2.000E-02   0.000E+00   0.000E+00           F           F   0.000E+00   1.000E+00   1.000E+00   1.000E+00   1.000E+00   1.000E+00   1.000E+00         -           -           -  
   307          33     -4.9725      5.9670    -44.0010   4.000E-01   2.000E-02   0.000E+00   0.000E+00           F           F   0.000E+00   1.000E+00   1.000E+00   1.000E+00   1.000E+00   1.000E+00   1.000E+00         -           -           -  
   308          34     -5.9670      4.9725    -44.0010   4.000E-01   2.000E-02   0.000E+00   0.000E+00           F           F   0.000E+00   1.000E+00   1.000E+00   1.000E+00   1.000E+00   1.000E+00   1.000E+00         -           -           -  
   309          34     -5.9670      3.9780    -44.0010   4.000E-01   2.000E-02   0.000E+00   0.000E+00           F           F   0.000E+00   1.000E+00   1.000E+00   1.000E+00   1.000E+00   1.000E+00   1.000E+00         -           -           -  
   310          34     -5.9670      2.9835    -44.0010   4.000E-01   2.000E-02   0.000E+00   0.000E+00           F           F   0.000E+00   1.000E+00   1.000E+00   1.000E+00   1.000E+00   1.000E+00   1.000E+00         -           -           -  
   311          34     -5.9670      1.9890    -44.0010   4.000E-01   2.000E-02   0.000E+00   0.000E+00           F           F   0.000E+00   1.000E+00   1.000E+00   1.000E+00   1.000E+00   1.000E+00   1.000E+00         -           -           -  
   312          34     -5.9670      0.9945    -44.0010   4.000E-01   2.000E-02   0.000E+00   0.000E+00           F           F   0.000E+00   1.000E+00   1.000E+00   1.000E+00   1.000E+00   1.000E+00   1.000E+00         -           -           -  
[...]
       7056     1.52105E+01     1.22133E+01     0.00000E+00    -9.34442E-01          5.03019E-01
       7057     1.52148E+01     1.22150E+01     0.00000E+00     9.33638E-01          5.03718E-01
       7058     1.52191E+01     1.22167E+01     0.00000E+00     4.40212E-01          9.64794E-01
       7059     1.52234E+01     1.22185E+01     0.00000E+00     1.00822E+00         -3.27585E-01
       7060     1.52277E+01     1.22202E+01     0.00000E+00     6.00597E-01         -8.73101E-01
       7061     1.52320E+01     1.22219E+01     0.00000E+00    -1.03963E+00         -2.03489E-01
       7062     1.52364E+01     1.22237E+01     0.00000E+00     1.37885E-01         -1.04996E+00
       7063     1.52407E+01     1.22254E+01     0.00000E+00    -7.07999E-01          7.87005E-01
       7064     1.52450E+01     1.22271E+01     0.00000E+00     2.83926E-01         -1.01943E+00
       7065     1.52493E+01     1.22288E+01     0.00000E+00    -1.02024E+00         -2.79587E-01
       7066     1.52536E+01     1.22306E+01     0.00000E+00    -4.92470E-01         -9.35807E-01
       7067     1.52579E+01     1.22323E+01     0.00000E+00     4.48551E-01          9.57222E-01
       7068     1.52623E+01     1.22340E+01     0.00000E+00     1.03944E+00          1.90404E-01
       7069     1.52666E+01     1.22358E+01     0.00000E+00    -1.00620E+00          3.21640E-01
       7070     1.52709E+01     1.22375E+01     0.00000E+00     1.00135E+00         -3.35256E-01
       7071     1.52752E+01     1.22392E+01     0.00000E+00     1.86543E-01          1.03900E+00
       7072     1.52795E+01     1.22410E+01     0.00000E+00     6.14499E-01         -8.57856E-01
       7073     1.52839E+01     1.22427E+01     0.00000E+00    -1.02381E+00          2.54069E-01
       7074     1.52882E+01     1.22444E+01     0.00000E+00     5.21350E-01         -9.16596E-01
       7075     1.52925E+01     1.22462E+01     0.00000E+00    -1.01779E+00          2.74360E-01
       7076     1.52968E+01     1.22479E+01     0.00000E+00     1.65740E-01         -1.04063E+00
       7077     1.53012E+01     1.22496E+01     0.00000E+00     6.60296E-01         -8.20737E-01
       7078     1.53055E+01     1.22513E+01     0.00000E+00     4.72866E-01         -9.40858E-01
       7079     1.53098E+01     1.22531E+01     0.00000E+00     1.05263E+00          7.29237E-04
       7080     1.53141E+01     1.22548E+01     0.00000E+00    -1.02264E+00         -2.47913E-01
       7081     1.53185E+01     1.22565E+01     0.00000E+00    -7.20156E-01          7.66710E-01
       7082     1.53228E+01     1.22583E+01     0.00000E+00    -9.90858E-01          3.51976E-01
       7083     1.53271E+01     1.22600E+01     0.00000E+00     8.85897E-01         -5.65768E-01
       7084     1.53314E+01     1.22617E+01     0.00000E+00     2.08089E-01          1.02996E+00
       7085     1.53358E+01     1.22635E+01     0.00000E+00    -8.30933E-02          1.04711E+00
       7086     1.53401E+01     1.22652E+01     0.00000E+00    -7.54783E-01         -7.29982E-01
       7087     1.53444E+01     1.22669E+01     0.00000E+00    -9.20492E-01         -5.04467E-01
       7088     1.53488E+01     1.22687E+01     0.00000E+00    -2.58200E-01          1.01703E+00
       7089     1.53531E+01     1.22704E+01     0.00000E+00     3.30001E-01          9.95660E-01
       7090     1.53574E+01     1.22721E+01     0.00000E+00    -9.57183E-01         -4.28094E-01
       7091     1.53618E+01     1.22738E+01     0.00000E+00     3.56503E-01         -9.85695E-01
       7092     1.53661E+01     1.22756E+01     0.00000E+00    -2.50264E-01         -1.01749E+00
       7093     1.53704E+01     1.22773E+01     0.00000E+00    -1.04158E+00         -1.10697E-01
       7094     1.53748E+01     1.22790E+01     0.00000E+00     1.04649E+00         -3.49822E-02
       7095     1.53791E+01     1.22808E+01     0.00000E+00    -1.04211E+00          9.79437E-02
       7096     1.53834E+01     1.22825E+01     0.00000E+00     9.15030E-01          5.07488E-01
       7097     1.53878E+01     1.22842E+01     0.00000E+00    -1.04085E+00          1.03368E-01
       7098     1.53921E+01     1.22860E+01     0.00000E+00    -2.24238E-01         -1.02127E+00
       7099     1.53964E+01     1.22877E+01     0.00000E+00     1.03384E+00         -1.53895E-01
       7100     1.54008E+01     1.22894E+01     0.00000E+00    -8.96035E-01          5.37462E-01
       7101     1.54051E+01     1.22912E+01     0.00000E+00     5.94329E-01         -8.58922E-01
       7102     1.54094E+01     1.22929E+01     0.00000E+00    -8.84912E-01          5.54199E-01
       7103     1.54138E+01     1.22946E+01     0.00000E+00     2.74294E-01         -1.00708E+00
       7104     1.54181E+01     1.22963E+01     0.00000E+00    -7.07814E-01         -7.66598E-01
       7105     1.54225E+01     1.22981E+01     0.00000E+00    -5.36463E-02         -1.04165E+00
       7106     1.54268E+01     1.22998E+01     0.00000E+00    -9.96303E-01          3.07445E-01
       7107     1.54312E+01     1.23015E+01     0.00000E+00     1.03707E+00         -1.04237E-01
       7108     1.54355E+01     1.23033E+01     0.00000E+00    -1.91130E-01         -1.02425E+00
       7109     1.54398E+01     1.23050E+01     0.00000E+00     6.19808E-01          8.37071E-01
       7110     1.54442E+01     1.23067E+01     0.00000E+00     3.27965E-01         -9.88193E-01
       7111     1.54485E+01     1.23085E+01     0.00000E+00    -1.58909E-01         -1.02863E+00
       7112     1.54529E+01     1.23102E+01     0.00000E+00    -8.35498E-02         -1.03710E+00
       7113     1.54572E+01     1.23119E+01     0.00000E+00     3.68243E-01         -9.72728E-01
       7114     1.54616E+01     1.23137E+01     0.00000E+00    -1.03574E+00         -9.10590E-02
       7115     1.54659E+01     1.23154E+01     0.00000E+00    -5.44313E-01          8.85441E-01
       7116     1.54703E+01     1.23171E+01     0.00000E+00     2.03506E-01          1.01888E+00
       7117     1.54746E+01     1.23189E+01     0.00000E+00     1.40351E-01          1.02911E+00
       7118     1.54790E+01     1.23206E+01     0.00000E+00    -1.01215E+00          2.31443E-01
       7119     1.54833E+01     1.23223E+01     0.00000E+00    -5.71387E-01          8.66469E-01
       7120     1.54877E+01     1.23240E+01     0.00000E+00    -1.03719E+00          2.70235E-02
       7121     1.54920E+01     1.23258E+01     0.00000E+00     1.03150E+00         -1.08359E-01
       7122     1.54964E+01     1.23275E+01     0.00000E+00     9.06954E-01          5.02414E-01
       7123     1.55007E+01     1.23292E+01     0.00000E+00     1.02002E+00         -1.83829E-01
       7124     1.55051E+01     1.23310E+01     0.00000E+00    -8.07255E-02         -1.03294E+00
       7125     1.55094E+01     1.23327E+01     0.00000E+00    -8.82737E-01          5.41756E-01
       7126     1.55138E+01     1.23344E+01     0.00000E+00     9.99281E-01         -2.70942E-01
       7127     1.55181E+01     1.23362E+01     0.00000E+00    -1.01502E+00          2.02388E-01
       7128     1.55225E+01     1.23379E+01     0.00000E+00     8.60376E-01          5.74648E-01
       7129     1.55268E+01     1.23396E+01     0.00000E+00     9.86002E-01         -3.12278E-01
       7130     1.55312E+01     1.23414E+01     0.00000E+00    -9.22092E-01         -4.67669E-01
       7131     1.55355E+01     1.23431E+01     0.00000E+00     2.85227E-01         -9.93410E-01
       7132     1.55399E+01     1.23448E+01     0.00000E+00    -5.93014E-01          8.46052E-01
       7133     1.55443E+01     1.23465E+01     0.00000E+00     6.44420E-01          8.07121E-01
       7134     1.55486E+01     1.23483E+01     0.00000E+00    -4.94292E-01         -9.06449E-01
       7135     1.55530E+01     1.23500E+01     0.00000E+00    -5.29865E-01         -8.85704E-01
       7136     1.55573E+01     1.23517E+01     0.00000E+00     6.06767E-01         -8.34455E-01
       7137     1.55617E+01     1.23535E+01     0.00000E+00    -7.44722E-01         -7.13530E-01
       7138     1.55661E+01     1.23552E+01     0.00000E+00     9.79178E-01          3.22803E-01
       7139     1.55704E+01     1.23569E+01     0.00000E+00     4.91204E-01         -9.06071E-01
       7140     1.55748E+01     1.23587E+01     0.00000E+00    -1.01544E+00         -1.74291E-01
       7141     1.55792E+01     1.23604E+01     0.00000E+00     7.74526E-01         -6.78874E-01
       7142     1.55835E+01     1.23621E+01     0.00000E+00    -1.15026E-01          1.02313E+00
       7143     1.55879E+01     1.23639E+01     0.00000E+00    -5.88501E-01          8.44359E-01
       7144     1.55922E+01     1.23656E+01     0.00000E+00     9.66780E-01          3.51954E-01
       7145     1.55966E+01     1.23673E+01     0.00000E+00    -7.18760E-01         -7.35648E-01
       7146     1.56010E+01     1.23690E+01     0.00000E+00    -9.69290E-01         -3.42829E-01
       7147     1.56053E+01     1.23708E+01     0.00000E+00     1.33190E-02         -1.02769E+00
       7148     1.56097E+01     1.23725E+01     0.00000E+00    -1.23287E-01          1.01999E+00
       7149     1.56141E+01     1.23742E+01     0.00000E+00    -9.64709E-01          3.52385E-01
       7150     1.56184E+01     1.23760E+01     0.00000E+00    -8.19939E-01          6.17900E-01
       7151     1.56228E+01     1.23777E+01     0.00000E+00    -1.02307E+00          8.17557E-02
       7152     1.56272E+01     1.23794E+01     0.00000E+00     4.81729E-01         -9.05850E-01
       7153     1.56316E+01     1.23812E+01     0.00000E+00     9.51541E-01          3.82701E-01
       7154     1.56359E+01     1.23829E+01     0.00000E+00    -9.55987E-01          3.70468E-01
       7155     1.56403E+01     1.23846E+01     0.00000E+00    -1.84427E-01          1.00817E+00
       7156     1.56447E+01     1.23864E+01     0.00000E+00     9.78327E-01          3.04245E-01
       7157     1.56490E+01     1.23881E+01     0.00000E+00     8.84129E-01         -5.16982E-01
       7158     1.56534E+01     1.23898E+01     0.00000E+00    -8.53690E-01         -5.65187E-01
       7159     1.56578E+01     1.23915E+01     0.00000E+00    -1.00751E+00         -1.80040E-01
       7160     1.56622E+01     1.23933E+01     0.00000E+00     7.12335E-01         -7.34397E-01
       7161     1.56665E+01     1.23950E+01     0.00000E+00    -8.15542E-02         -1.01950E+00
       7162     1.56709E+01     1.23967E+01     0.00000E+00     9.46461E-01         -3.86667E-01
       7163     1.56753E+01     1.23985E+01     0.00000E+00    -9.79454E-01          2.91957E-01
       7164     1.56797E+01     1.24002E+01     0.00000E+00     2.25648E-01         -9.96456E-01
       7165     1.56840E+01     1.24019E+01     0.00000E+00    -6.29607E-01         -8.04181E-01
       7166     1.56884E+01     1.24037E+01     0.00000E+00     4.72828E-01         -9.04886E-01
       7167     1.56928E+01     1.24054E+01     0.00000E+00     5.17526E-01          8.79673E-01
       7168     1.56972E+01     1.24071E+01     0.00000E+00     9.23071E-01         -4.34593E-01
       7169     1.57016E+01     1.24089E+01     0.00000E+00    -8.56179E-02         -1.01630E+00
       7170     1.57059E+01     1.24106E+01     0.00000E+00     1.74014E-01          1.00459E+00
       7171     1.57103E+01     1.24123E+01     0.00000E+00    -7.46282E-01          6.94132E-01
       7172     1.57147E+01     1.24141E+01     0.00000E+00    -4.38913E-01          9.19450E-01
       7173     1.57191E+01     1.24158E+01     0.00000E+00    -8.59344E-01         -5.46660E-01
       7174     1.57235E+01     1.24175E+01     0.00000E+00    -9.87220E-01         -2.48964E-01
       7175     1.57279E+01     1.24192E+01     0.00000E+00     8.13393E-01         -6.11765E-01
       7176     1.57322E+01     1.24210E+01     0.00000E+00    -9.32502E-01          4.06918E-01
       7177     1.57366E+01     1.24227E+01     0.00000E+00     8.46798E-02          1.01353E+00
       7178     1.57410E+01     1.24244E+01     0.00000E+00     6.61973E-01          7.71682E-01
       7179     1.57454E+01     1.24262E+01     0.00000E+00     1.01062E+00          1.07807E-01
       7180     1.57498E+01     1.24279E+01     0.00000E+00     4.58876E-01         -9.06474E-01
       7181     1.57542E+01     1.24296E+01     0.00000E+00     8.45666E-01         -5.62488E-01
       7182     1.57586E+01     1.24314E+01     0.00000E+00     2.63459E-02         -1.01495E+00
       7183     1.57630E+01     1.24331E+01     0.00000E+00    -9.59710E-01          3.30251E-01
       7184     1.57673E+01     1.24348E+01     0.00000E+00    -3.91378E-01          9.36063E-01
       7185     1.57717E+01     1.24366E+01     0.00000E+00    -9.83263E-01          2.48736E-01
       7186     1.57761E+01     1.24383E+01     0.00000E+00     5.55830E-01          8.47946E-01
       7187     1.57805E+01     1.24400E+01     0.00000E+00     3.54514E-01         -9.49507E-01
       7188     1.57849E+01     1.24417E+01     0.00000E+00    -9.96352E-01          1.83884E-01
       7189     1.57893E+01     1.24435E+01     0.00000E+00    -6.33980E-01          7.89864E-01
       7190     1.57937E+01     1.24452E+01     0.00000E+00     5.59504E-01          8.43836E-01
       7191     1.57981E+01     1.24469E+01     0.00000E+00     7.32921E-01         -6.98010E-01
       7192     1.58025E+01     1.24487E+01     0.00000E+00     8.00365E-01         -6.18947E-01
       7193     1.58069E+01     1.24504E+01     0.00000E+00    -6.48253E-01          7.76361E-01
       7194     1.58113E+01     1.24521E+01     0.00000E+00     2.07718E-01         -9.89500E-01
       7195     1.58157E+01     1.24539E+01     0.00000E+00     7.32997E-02          1.00805E+00
       7196     1.58201E+01     1.24556E+01     0.00000E+00    -9.71371E-01         -2.77984E-01
       7197     1.58245E+01     1.24573E+01     0.00000E+00     6.71898E-01          7.54110E-01
       7198     1.58289E+01     1.24591E+01     0.00000E+00    -6.21505E-01          7.95709E-01
       7199     1.58333E+01     1.24608E+01     0.00000E+00     1.38153E-01         -9.99813E-01
       7200     1.58377E+01     1.24625E+01     0.00000E+00     7.09737E-01          7.17132E-01
       7201     1.58421E+01     1.24642E+01     0.00000E+00    -1.10073E-01         -1.00259E+00
       7202     1.58465E+01     1.24660E+01     0.00000E+00     1.00298E-01          1.00326E+00
       7203     1.58509E+01     1.24677E+01     0.00000E+00    -6.76171E-01         -7.47449E-01
       7204     1.58553E+01     1.24694E+01     0.00000E+00    -9.75764E-01          2.51132E-01
       7205     1.58597E+01     1.24712E+01     0.00000E+00    -3.61152E-01          9.40237E-01
       7206     1.58641E+01     1.24729E+01     0.00000E+00     3.47261E-01          9.45084E-01
       7207     1.58685E+01     1.24746E+01     0.00000E+00    -4.69263E-01         -8.90428E-01
       7208     1.58729E+01     1.24764E+01     0.00000E+00     9.80557E-01         -2.25557E-01
       7209     1.58773E+01     1.24781E+01     0.00000E+00     8.79454E-01          4.88085E-01
       7210     1.58817E+01     1.24798E+01     0.00000E+00     4.77485E-01         -8.84858E-01
       7211     1.58861E+01     1.24816E+01     0.00000E+00     2.23348E-01         -9.79990E-01
       7212     1.58905E+01     1.24833E+01     0.00000E+00    -6.06712E-01          8.00915E-01
       7213     1.58949E+01     1.24850E+01     0.00000E+00    -5.00014E-01          8.71120E-01
       7214     1.58993E+01     1.24867E+01     0.00000E+00     1.00356E+00          3.22115E-02
       7215     1.59037E+01     1.24885E+01     0.00000E+00     1.72479E-01          9.88796E-01
       7216     1.59081E+01     1.24902E+01     0.00000E+00     9.26013E-01          3.86354E-01
       7217     1.59125E+01     1.24919E+01     0.00000E+00    -7.65385E-01         -6.48272E-01
       7218     1.59169E+01     1.24937E+01     0.00000E+00     9.83504E-01          1.95179E-01
       7219     1.59213E+01     1.24954E+01     0.00000E+00     4.32909E-01          9.04029E-01
       7220     1.59258E+01     1.24971E+01     0.00000E+00     6.97846E-01         -7.19023E-01
       7221     1.59302E+01     1.24989E+01     0.00000E+00    -5.93774E-01         -8.06673E-01
       7222     1.59346E+01     1.25006E+01     0.00000E+00    -1.79347E-01          9.85103E-01
       7223     1.59390E+01     1.25023E+01     0.00000E+00    -9.69078E-01          2.50576E-01
       7224     1.59434E+01     1.25041E+01     0.00000E+00     3.49042E-01         -9.37751E-01
       7225     1.59478E+01     1.25058E+01     0.00000E+00     5.68907E-01         -8.22714E-01
       7226     1.59522E+01     1.25075E+01     0.00000E+00     2.52611E-01         -9.67476E-01
       7227     1.59567E+01     1.25093E+01     0.00000E+00    -1.51545E-01          9.88010E-01
       7228     1.59611E+01     1.25110E+01     0.00000E+00    -5.89974E-01          8.06455E-01
       7229     1.59655E+01     1.25127E+01     0.00000E+00    -7.75322E-01          6.29781E-01
       7230     1.59699E+01     1.25144E+01     0.00000E+00    -7.79255E-01         -6.24356E-01
       7231     1.59743E+01     1.25162E+01     0.00000E+00     3.79672E-01         -9.23157E-01
       7232     1.59787E+01     1.25179E+01     0.00000E+00     9.97717E-01          1.55519E-02
       7233     1.59832E+01     1.25196E+01     0.00000E+00     6.69065E-01          7.39827E-01
       7234     1.59876E+01     1.25214E+01     0.00000E+00    -8.32689E-01          5.48575E-01
       7235     1.59920E+01     1.25231E+01     0.00000E+00     2.03285E-01         -9.75855E-01
       7236     1.59964E+01     1.25248E+01     0.00000E+00    -8.08780E-01         -5.82072E-01
       7237     1.60008E+01     1.25266E+01     0.00000E+00    -9.03436E-01          4.19582E-01
       7238     1.60053E+01     1.25283E+01     0.00000E+00    -9.50654E-01          2.96341E-01
       7239     1.60097E+01     1.25300E+01     0.00000E+00    -9.02974E-02         -9.91324E-01
       7240     1.60141E+01     1.25318E+01     0.00000E+00     5.42563E-01         -8.34157E-01
       7241     1.60185E+01     1.25335E+01     0.00000E+00    -4.20453E-01         -9.01514E-01
       7242     1.60230E+01     1.25352E+01     0.00000E+00    -7.84548E-01          6.10991E-01
       7243     1.60274E+01     1.25369E+01     0.00000E+00     8.48078E-01          5.18562E-01
       7244     1.60318E+01     1.25387E+01     0.00000E+00     9.60772E-01          2.53728E-01
       7245     1.60362E+01     1.25404E+01     0.00000E+00    -9.92627E-01         -3.83627E-02
       7246     1.60407E+01     1.25421E+01     0.00000E+00     2.52266E-01          9.60448E-01
       7247     1.60451E+01     1.25439E+01     0.00000E+00     6.42844E-01          7.56420E-01
       7248     1.60495E+01     1.25456E+01     0.00000E+00    -9.32949E-01         -3.38149E-01
       7249     1.60540E+01     1.25473E+01     0.00000E+00    -2.26998E-01          9.65677E-01
       7250     1.60584E+01     1.25491E+01     0.00000E+00     9.91435E-01          2.09485E-02
       7251     1.60628E+01     1.25508E+01     0.00000E+00     7.90866E-01         -5.97692E-01
       7252     1.60672E+01     1.25525E+01     0.00000E+00     4.98177E-01          8.56649E-01
       7253     1.60717E+01     1.25543E+01     0.00000E+00     7.48774E-01          6.48605E-01
       7254     1.60761E+01     1.25560E+01     0.00000E+00    -8.51513E-01         -5.05568E-01
       7255     1.60805E+01     1.25577E+01     0.00000E+00     9.73939E-01         -1.77315E-01
       7256     1.60850E+01     1.25594E+01     0.00000E+00     7.22803E-01         -6.75928E-01
       7257     1.60894E+01     1.25612E+01     0.00000E+00     9.78368E-01         -1.46440E-01
       7258     1.60938E+01     1.25629E+01     0.00000E+00     8.21294E-01         -5.50864E-01
       7259     1.60983E+01     1.25646E+01     0.00000E+00    -9.76733E-01         -1.52621E-01
       7260     1.61027E+01     1.25664E+01     0.00000E+00     0.00000E+00          0.00000E+00

This summary file was closed on 06-Jul-2022 at 12:54:38.

