
 **************************************************************************************************
 OpenFAST

 Copyright (C) 2021 National Renewable Energy Laboratory
 Copyright (C) 2021 Envision Energy USA LTD

 This program is licensed under Apache License Version 2.0 and comes with ABSOLUTELY NO WARRANTY.
 See the "LICENSE" file distributed with this software for details.
 **************************************************************************************************

 OpenFAST-v2.4.0-138-g9a6c1967
 Compile Info:
  - Compiler: Intel(R) Fortran Intel(R) 64 Compiler Classic for applications running on Intel(R)
  64, Version 2021.1.2 Build 20201208_000000
  - Architecture: 64 bit
  - Precision: double
  - Date: Jan 12 2021
  - Time: 13:31:16
 Execution Info:
  - Date: 01/12/2021
  - Time: 14:08:38-0600

 OpenFAST input file heading:
     FAST Certification Test #21: NREL 5.0 MW Baseline Offshore Turbine with OC4 Jacket
     Configuration

 Running ElastoDyn.
 Nodal outputs section of ElastoDyn input file not found or improperly formatted.
 Running AeroDyn.
 Nodal output section of AeroDyn input file not found or improperly formatted.
 Warning: Turning off Unsteady Aerodynamics because C_nalpha is 0. (node 1, blade 1)
 Warning: Turning off Unsteady Aerodynamics because C_nalpha is 0. (node 2, blade 1)
 Warning: Turning off Unsteady Aerodynamics because C_nalpha is 0. (node 3, blade 1)
 Warning: Turning off Unsteady Aerodynamics because C_nalpha is 0. (node 4, blade 1)
 Warning: Turning off Unsteady Aerodynamics because C_nalpha is 0. (node 1, blade 2)
 Warning: Turning off Unsteady Aerodynamics because C_nalpha is 0. (node 2, blade 2)
 Warning: Turning off Unsteady Aerodynamics because C_nalpha is 0. (node 3, blade 2)
 Warning: Turning off Unsteady Aerodynamics because C_nalpha is 0. (node 4, blade 2)
 Warning: Turning off Unsteady Aerodynamics because C_nalpha is 0. (node 1, blade 3)
 Warning: Turning off Unsteady Aerodynamics because C_nalpha is 0. (node 2, blade 3)
 Warning: Turning off Unsteady Aerodynamics because C_nalpha is 0. (node 3, blade 3)
 Warning: Turning off Unsteady Aerodynamics because C_nalpha is 0. (node 4, blade 3)
 Running InflowWind.

    Reading a 31x31 grid (145 m wide, 17.5 m to 162.5 m above ground) with a characteristic wind
    speed of 12 m/s. This full-field file was generated by TurbSim (v1.06.00, 21-Sep-2012) on
    07-Jan-2014 at 12:50:45.

    Processed 1442 time steps of 20-Hz full-field data (72.05 seconds).
 Running ServoDyn.
 Running ServoDyn Interface for Bladed Controllers (using Intel Fortran for Linux, ).
 Using legacy Bladed DLL interface.
 Running HydroDyn.
  Generating incident wave kinematics and current time history.
 Running SubDyn.
    Calculating Internal Modal Eigenvectors
  Time: 0 of 60 seconds.

 FAST_Solution0:CalcOutputs_And_SolveForInputs:SolveOption2:SrvD_CalcOutput:DLL_controller_call:Run
 ning with torque and pitch control of the NREL offshore 5MW baseline wind turbine from DISCON.dll
 as written by J. Jonkman of NREL/NWTC for use in the IEA Annex XXIII OC3 studies.


 FAST_Solution:FAST_AdvanceStates:SrvD_UpdateStates:DLL_controller_call:BladedInterface option was
 designed for an explicit-loose coupling scheme. Using last calculated values from DLL on all
 subsequent calls until time is advanced. Warning will not be displayed again.

+                                                                                                  
+ Time: 1 of 60 seconds.  Estimated final completion at 15:29:43.
+                                                                                                  
+ Time: 2 of 60 seconds.  Estimated final completion at 14:27:51.
+                                                                                                  
+ Time: 3 of 60 seconds.  Estimated final completion at 14:27:32.
+                                                                                                  
+ Time: 4 of 60 seconds.  Estimated final completion at 14:27:53.
+                                                                                                  
+ Time: 5 of 60 seconds.  Estimated final completion at 14:28:11.
+                                                                                                  
+ Time: 6 of 60 seconds.  Estimated final completion at 14:28:15.
+                                                                                                  
+ Time: 7 of 60 seconds.  Estimated final completion at 14:28:36.
+                                                                                                  
+ Time: 8 of 60 seconds.  Estimated final completion at 14:28:15.
+                                                                                                  
+ Time: 9 of 60 seconds.  Estimated final completion at 14:28:25.
+                                                                                                  
+ Time: 10 of 60 seconds.  Estimated final completion at 14:28:53.
+                                                                                                  
+ Time: 11 of 60 seconds.  Estimated final completion at 14:28:47.
+                                                                                                  
+ Time: 12 of 60 seconds.  Estimated final completion at 14:28:48.
+                                                                                                  
+ Time: 13 of 60 seconds.  Estimated final completion at 14:28:11.
+                                                                                                  
+ Time: 14 of 60 seconds.  Estimated final completion at 14:28:28.
+                                                                                                  
+ Time: 15 of 60 seconds.  Estimated final completion at 14:28:24.
+                                                                                                  
+ Time: 16 of 60 seconds.  Estimated final completion at 14:28:18.
+                                                                                                  
+ Time: 17 of 60 seconds.  Estimated final completion at 14:28:43.
+                                                                                                  
+ Time: 18 of 60 seconds.  Estimated final completion at 14:29:24.
+                                                                                                  
+ Time: 19 of 60 seconds.  Estimated final completion at 14:29:12.
+                                                                                                  
+ Time: 20 of 60 seconds.  Estimated final completion at 14:28:38.
+                                                                                                  
+ Time: 21 of 60 seconds.  Estimated final completion at 14:28:46.
+                                                                                                  
+ Time: 22 of 60 seconds.  Estimated final completion at 14:29:44.
+                                                                                                  
+ Time: 23 of 60 seconds.  Estimated final completion at 14:29:30.
+                                                                                                  
+ Time: 24 of 60 seconds.  Estimated final completion at 14:28:51.
+                                                                                                  
+ Time: 25 of 60 seconds.  Estimated final completion at 14:28:46.
+                                                                                                  
+ Time: 26 of 60 seconds.  Estimated final completion at 14:28:35.
+                                                                                                  
+ Time: 27 of 60 seconds.  Estimated final completion at 14:28:36.
+                                                                                                  
+ Time: 28 of 60 seconds.  Estimated final completion at 14:28:06.
+                                                                                                  
+ Time: 29 of 60 seconds.  Estimated final completion at 14:26:24.
+                                                                                                  
+ Time: 30 of 60 seconds.  Estimated final completion at 14:26:34.
+                                                                                                  
+ Time: 31 of 60 seconds.  Estimated final completion at 14:26:42.
+                                                                                                  
+ Time: 32 of 60 seconds.  Estimated final completion at 14:26:36.
+                                                                                                  
+ Time: 33 of 60 seconds.  Estimated final completion at 14:26:18.
+                                                                                                  
+ Time: 34 of 60 seconds.  Estimated final completion at 14:26:09.
+                                                                                                  
+ Time: 35 of 60 seconds.  Estimated final completion at 14:26:06.
+                                                                                                  
+ Time: 36 of 60 seconds.  Estimated final completion at 14:26:08.
+                                                                                                  
+ Time: 37 of 60 seconds.  Estimated final completion at 14:26:10.
+                                                                                                  
+ Time: 38 of 60 seconds.  Estimated final completion at 14:26:07.
+                                                                                                  
+ Time: 39 of 60 seconds.  Estimated final completion at 14:26:12.
+                                                                                                  
+ Time: 40 of 60 seconds.  Estimated final completion at 14:26:07.
+                                                                                                  
+ Time: 41 of 60 seconds.  Estimated final completion at 14:26:09.
+                                                                                                  
+ Time: 42 of 60 seconds.  Estimated final completion at 14:26:22.
+                                                                                                  
+ Time: 43 of 60 seconds.  Estimated final completion at 14:26:20.
+                                                                                                  
+ Time: 44 of 60 seconds.  Estimated final completion at 14:26:22.
+                                                                                                  
+ Time: 45 of 60 seconds.  Estimated final completion at 14:26:18.
+                                                                                                  
+ Time: 46 of 60 seconds.  Estimated final completion at 14:26:15.
+                                                                                                  
+ Time: 47 of 60 seconds.  Estimated final completion at 14:26:15.
+                                                                                                  
+ Time: 48 of 60 seconds.  Estimated final completion at 14:26:16.
+                                                                                                  
+ Time: 49 of 60 seconds.  Estimated final completion at 14:26:19.
+                                                                                                  
+ Time: 50 of 60 seconds.  Estimated final completion at 14:26:17.
+                                                                                                  
+ Time: 51 of 60 seconds.  Estimated final completion at 14:26:20.
+                                                                                                  
+ Time: 52 of 60 seconds.  Estimated final completion at 14:26:19.
+                                                                                                  
+ Time: 53 of 60 seconds.  Estimated final completion at 14:26:18.
+                                                                                                  
+ Time: 54 of 60 seconds.  Estimated final completion at 14:26:18.
+                                                                                                  
+ Time: 55 of 60 seconds.  Estimated final completion at 14:26:19.
+                                                                                                  
+ Time: 56 of 60 seconds.  Estimated final completion at 14:26:19.
+                                                                                                  
+ Time: 57 of 60 seconds.  Estimated final completion at 14:26:20.
+                                                                                                  
+ Time: 58 of 60 seconds.  Estimated final completion at 14:26:18.
+                                                                                                  
+ Time: 59 of 60 seconds.  Estimated final completion at 14:26:19.
+                                                                                                  
+ Time: 60 of 60 seconds.  Estimated final completion at 14:26:19.
+                                                                                                  

  Total Real Time:       17.671 minutes
  Total CPU Time:        17.661 minutes
  Simulation CPU Time:   17.171 minutes
  Simulated Time:        1 minutes
  Time Ratio (Sim/CPU):  5.82383E-02

  OpenFAST terminated normally.

