
 **************************************************************************************************
 OpenFAST

 Copyright (C) 2022 National Renewable Energy Laboratory
 Copyright (C) 2022 Envision Energy USA LTD

 This program is licensed under Apache License Version 2.0 and comes with ABSOLUTELY NO WARRANTY.
 See the "LICENSE" file distributed with this software for details.
 **************************************************************************************************

 OpenFAST-v3.1.0-214-g7fe8bef2
 Compile Info:
  - Compiler: GCC version 10.4.0
  - Architecture: 64 bit
  - Precision: double
  - OpenMP: No
  - Date: Jul  6 2022
  - Time: 11:12:11
 Execution Info:
  - Date: 07/06/2022
  - Time: 11:30:30-0500

 OpenFAST input file heading:
     FAST Certification Test #18: NREL 5.0 MW Baseline Wind Turbine (Onshore)

 Running ElastoDyn.
 Nodal outputs section of ElastoDyn input file not found or improperly formatted.
 Running AeroDyn.
 AD15 Nodal Outputs: Nodal output section of AeroDyn input file not found or improperly formatted.
 Skipping nodal outputs.
 Warning: Turning off Unsteady Aerodynamics because UA parameters are not included in airfoil
 (airfoil has likely has constant polars). (node 1, blade 1)
 Warning: Turning off Unsteady Aerodynamics because UA parameters are not included in airfoil
 (airfoil has likely has constant polars). (node 2, blade 1)
 Warning: Turning off Unsteady Aerodynamics because UA parameters are not included in airfoil
 (airfoil has likely has constant polars). (node 3, blade 1)
 Warning: Turning off Unsteady Aerodynamics because UA parameters are not included in airfoil
 (airfoil has likely has constant polars). (node 4, blade 1)
 Warning: Turning off Unsteady Aerodynamics because UA parameters are not included in airfoil
 (airfoil has likely has constant polars). (node 1, blade 2)
 Warning: Turning off Unsteady Aerodynamics because UA parameters are not included in airfoil
 (airfoil has likely has constant polars). (node 2, blade 2)
 Warning: Turning off Unsteady Aerodynamics because UA parameters are not included in airfoil
 (airfoil has likely has constant polars). (node 3, blade 2)
 Warning: Turning off Unsteady Aerodynamics because UA parameters are not included in airfoil
 (airfoil has likely has constant polars). (node 4, blade 2)
 Warning: Turning off Unsteady Aerodynamics because UA parameters are not included in airfoil
 (airfoil has likely has constant polars). (node 1, blade 3)
 Warning: Turning off Unsteady Aerodynamics because UA parameters are not included in airfoil
 (airfoil has likely has constant polars). (node 2, blade 3)
 Warning: Turning off Unsteady Aerodynamics because UA parameters are not included in airfoil
 (airfoil has likely has constant polars). (node 3, blade 3)
 Warning: Turning off Unsteady Aerodynamics because UA parameters are not included in airfoil
 (airfoil has likely has constant polars). (node 4, blade 3)
 Running InflowWind.

    Reading a 31x31 grid (145 m wide, 17.5 m to 162.5 m above ground) with a characteristic wind
    speed of 12 m/s. This full-field file was generated by TurbSim (v1.06.00, 21-Sep-2012) on
    07-Jan-2014 at 12:50:45.

    Processed 1442 time steps of 20-Hz full-field data (72.05 seconds).
 Running ServoDyn.
 Running ServoDyn Interface for Bladed Controllers (using GNU Fortran for Linux, ).
 Using legacy Bladed DLL interface.
  Time: 0 of 60 seconds.
                                                                                                   Time: 5 of 60 seconds.  Estimated final completion at 11:31:50.                                                                                                                                     Time: 10 of 60 seconds.  Estimated final completion at 11:31:52.                                                                                                                                    Time: 15 of 60 seconds.  Estimated final completion at 11:31:53.                                                                                                                                    Time: 20 of 60 seconds.  Estimated final completion at 11:31:53.                                                                                                                                    Time: 25 of 60 seconds.  Estimated final completion at 11:31:55.                                                                                                                                    Time: 30 of 60 seconds.  Estimated final completion at 11:31:52.                                                                                                                                    Time: 35 of 60 seconds.  Estimated final completion at 11:31:52.                                                                                                                                    Time: 40 of 60 seconds.  Estimated final completion at 11:31:52.                                                                                                                                    Time: 45 of 60 seconds.  Estimated final completion at 11:31:51.                                                                                                                                    Time: 50 of 60 seconds.  Estimated final completion at 11:31:54.                                                                                                                                    Time: 55 of 60 seconds.  Estimated final completion at 11:31:52.                                                                                                                                    Time: 60 of 60 seconds.  Estimated final completion at 11:31:52.                                                                                                                                   
  Total Real Time:       1.3639 minutes
  Total CPU Time:        1.3528 minutes
  Simulation CPU Time:   1.3445 minutes
  Simulated Time:        1 minutes
  Time Ratio (Sim/CPU):  0.74375

  OpenFAST terminated normally.

