
 **************************************************************************************************
 OpenFAST

 Copyright (C) 2021 National Renewable Energy Laboratory
 Copyright (C) 2021 Envision Energy USA LTD

 This program is licensed under Apache License Version 2.0 and comes with ABSOLUTELY NO WARRANTY.
 See the "LICENSE" file distributed with this software for details.
 **************************************************************************************************

 OpenFAST-v2.5.0-1061-g5512f06f
 Compile Info:
  - Compiler: GCC version 10.2.0
  - Architecture: 64 bit
  - Precision: double
  - OpenMP: No
  - Date: Jun  7 2021
  - Time: 12:50:59
 Execution Info:
  - Date: 06/07/2021
  - Time: 13:07:00-0600

 OpenFAST input file heading:
     Elliptical wing test case for OLAF free vortex wake in AD15

 Running ElastoDyn.
 Nodal outputs section of ElastoDyn input file not found or improperly formatted.
 Running AeroDyn.
 Running FVW.
  - Directory:         /Users/aplatt/software-development/GitHub/openfast/build-DP-gcc10/reg_tests
  - RootName:
  /Users/aplatt/software-development/GitHub/openfast/build-DP-gcc10/reg_tests/glue-codes/openfast/E
  llipticalWing_OLAF/EllipticalWing_OLAF.
  - No OpenMP support
  - Regularization parameters:
    BladeReg (min/max):   0.0010  0.0010
    WakeReg (min/max) :   0.0010  0.0010
    k = alpha delta nu:   0.0018
 Running InflowWind.

 FAST_InitializeAll: IfW_Init:IfW_UniformWind_Init: Could not read upflow column in uniform wind
 files. Assuming upflow is 0.

  Time: 0 of 500 seconds.
                                                                                                   Time: 100 of 500 seconds.  Estimated final completion at 13:07:00.                                                                                                                                  Time: 200 of 500 seconds.  Estimated final completion at 13:07:00.                                                                                                                                  Time: 300 of 500 seconds.  Estimated final completion at 13:07:00.                                                                                                                                  Time: 400 of 500 seconds.  Estimated final completion at 13:07:00.                                                                                                                                  Time: 500 of 500 seconds.  Estimated final completion at 13:07:00.                                                                                                                                 
  Total Real Time:       6.80000E-02 seconds
  Total CPU Time:        6.63780E-02 seconds
  Simulation CPU Time:   4.73170E-02 seconds
  Simulated Time:        500 seconds
  Time Ratio (Sim/CPU):  10567

  OpenFAST terminated normally.

