
This summary file was generated by TurbSim (from OpenFAST-v3.4.1-202-g7a350235-dirty) on 18-Apr-2023 at 13:47:40.


Runtime Options:

     43821  Random seed #1
    RANLUX  Type of random number generator
         F  Output binary HH turbulence parameters?
         F  Output formatted turbulence parameters?
         F  Output AeroDyn HH files?
         F  Output AeroDyn FF files?
         T  Output BLADED FF files?
         F  Output tower data?
         F  Output HAWC FF files?
         F  Output formatted FF files?
         F  Output coherent turbulence time step file?
 2 -   ALL  IEC turbulence models scaled to exact specified standard deviation


Turbine/Model Specifications:

         7  Vertical grid-point matrix dimension
         7  Horizontal grid-point matrix dimension
     0.073  Time step [seconds]
   600.000  Analysis time [seconds]
   600.000  Usable output time [seconds]
    90.000  Hub height [m]
   160.000  Grid height [m]
   160.000  Grid width [m]
     0.000  Vertical flow angle [degrees]
     0.000  Horizontal flow angle [degrees]


Meteorological Boundary Conditions:

    IECKAI  IEC Kaimal spectral model
         1  IEC standard: IEC 61400-1 Ed. 3: 2005
         A  IEC turbulence characteristic
       NTM  IEC Normal Turbulence Model
       N/A  IEC Extreme Turbulence Model (ETM) "c" parameter [m/s]
       PL   Wind profile type
    90.000  Reference height [m]
    10.000  Reference wind speed [m/s]
       N/A  Jet height [m]
     0.000  Power law exponent
     0.030  Surface roughness length [m]


Non-IEC Meteorological Boundary Conditions:

       N/A  Site latitude [degrees]
       N/A  Gradient Richardson number
       N/A  Friction or shear velocity [m/s]
       N/A  Mixing layer depth [m]
       N/A  Mean hub u'w' Reynolds stress
       N/A  Mean hub u'v' Reynolds stress
       N/A  Mean hub v'w' Reynolds stress


Spatial Coherence Models:

       IEC  u-component coherence model
   GENERAL  v-component coherence model
   GENERAL  w-component coherence model
(   12.000, 0.353E-03)  u-component coherence parameters
(   12.000,  0.00    )  v-component coherence parameters
(   12.000,  0.00    )  w-component coherence parameters
     0.000  Coherence exponent


You have requested that the following file(s) be generated:

   TurbSim.wnd (AeroDyn/BLADED full-field wnd file)


Turbulence Simulation Scaling Parameter Summary:

   Turbulence model used                            =  IEC Kaimal
   Turbulence characteristic                        =  A
   IEC turbulence type                              =  Normal Turbulence Model
   IEC standard                                     =  IEC 61400-1 Ed. 3: 2005
   Mean wind speed at hub height                    =   10.000 m/s
   Expected value of turbulence intensity at 15 m/s =   16.000%
   Characteristic value of standard deviation       =    2.096 m/s
   Turbulence scale                                 =   42.000 m
   u-component integral scale                       =  340.200 m
   Coherency scale                                  =  340.200 m
   Characteristic value of hub turbulence intensity =   20.960%
   Gradient Richardson number                       =    0.000

   Wind profile type                                =  Power law
   Power law exponent                               =    0.000
   Mean shear across rotor disk                     =    0.000 (m/s)/m
   Assumed rotor diameter                           =  160.000 m
   Surface roughness length                         =    0.030 m

   Nyquist frequency of turbulent wind field        =    6.827 Hz

   Number of time steps in the FFT                  =     8192
   Number of time steps output                      =     8192
   Number of points simulated                       =       49


Mean Flow Angles:

   Vertical   =   0.0 degrees
   Horizontal =   0.0 degrees

Mean Wind Speed Profile:

   Height    Wind Speed   Horizontal Angle  Vertical Angle  U-comp (X)   V-comp (Y)   W-comp (Z)
     (m)        (m/s)         (degrees)       (degrees)       (m/s)        (m/s)        (m/s)   
   ------    ----------   ----------------  --------------  ----------   ----------   ----------
    170.0       10.00            0.00            0.00         10.00         0.00         0.00
    143.3       10.00            0.00            0.00         10.00         0.00         0.00
    116.7       10.00            0.00            0.00         10.00         0.00         0.00
     90.0       10.00            0.00            0.00         10.00         0.00         0.00
     63.3       10.00            0.00            0.00         10.00         0.00         0.00
     36.7       10.00            0.00            0.00         10.00         0.00         0.00
     10.0       10.00            0.00            0.00         10.00         0.00         0.00


Harvested Random Seeds after Generation of the Random Numbers:

      5594624 K 1
            0 K 2


Scaling statistics from the hub grid point:

  Component  Target Sigma (m/s)  Simulated Sigma (m/s)  Scaling Factor
  ---------  ------------------  ---------------------  --------------
     u'             2.096                1.511                1.387
     v'             1.677                1.562                1.073
     w'             1.048                1.000                1.048


Hub-Height Simulated Turbulence Statistical Summary:

   Type of Wind        Min (m/s)   Mean (m/s)    Max (m/s)  Sigma (m/s)       TI (%)
   ----------------    ---------   ----------    ---------  -----------       ------
   Longitudinal (u)         2.47        10.00        17.67        2.096       20.960
   Lateral (v)             -6.26        -0.00         5.53        1.677       16.768
   Vertical (w)            -3.65         0.00         4.04        1.048       10.480
   U component              2.47        10.00        17.67        2.096       20.960
   V component             -6.26        -0.00         5.53        1.677       16.768
   W component             -3.65         0.00         4.04        1.048       10.480
   Horizontal (U&V)         2.89        10.14        17.67        2.080       20.504
   Total                    3.00        10.20        17.68        2.071       20.303

                       Min Reynolds     Mean Reynolds    Max Reynolds    Correlation
   Product             Stress (m/s)^2   Stress (m/s)^2   Stress (m/s)^2  Coefficient
   ----------------    --------------   --------------   --------------  -----------
   u'w'                    -17.134             0.033            12.922         0.015
   u'v'                    -21.491             0.122            16.661         0.035
   v'w'                    -11.163             0.088            14.958         0.050


   Friction Velocity (Ustar)  =      0.181 m/s
   Maximum Instantaneous TKE  =     29.764 (m/s)^2
   Maximum Instantaneous CTKE =     12.847 (m/s)^2


Grid Point Variance Summary:

   Y-coord  -80.00  -53.33  -26.67    0.00   26.67   53.33   80.00

   Height   Standard deviation at grid points for the u component:
   170.00    2.096   2.096   2.096   2.096   2.096   2.096   2.096
   143.33    2.096   2.096   2.096   2.096   2.096   2.096   2.096
   116.67    2.096   2.096   2.096   2.096   2.096   2.096   2.096
    90.00    2.096   2.096   2.096   2.096   2.096   2.096   2.096
    63.33    2.096   2.096   2.096   2.096   2.096   2.096   2.096
    36.67    2.096   2.096   2.096   2.096   2.096   2.096   2.096
    10.00    2.096   2.096   2.096   2.096   2.096   2.096   2.096

   Height   Standard deviation at grid points for the v component:
   170.00    1.677   1.677   1.677   1.677   1.677   1.677   1.677
   143.33    1.677   1.677   1.677   1.677   1.677   1.677   1.677
   116.67    1.677   1.677   1.677   1.677   1.677   1.677   1.677
    90.00    1.677   1.677   1.677   1.677   1.677   1.677   1.677
    63.33    1.677   1.677   1.677   1.677   1.677   1.677   1.677
    36.67    1.677   1.677   1.677   1.677   1.677   1.677   1.677
    10.00    1.677   1.677   1.677   1.677   1.677   1.677   1.677

   Height   Standard deviation at grid points for the w component:
   170.00    1.048   1.048   1.048   1.048   1.048   1.048   1.048
   143.33    1.048   1.048   1.048   1.048   1.048   1.048   1.048
   116.67    1.048   1.048   1.048   1.048   1.048   1.048   1.048
    90.00    1.048   1.048   1.048   1.048   1.048   1.048   1.048
    63.33    1.048   1.048   1.048   1.048   1.048   1.048   1.048
    36.67    1.048   1.048   1.048   1.048   1.048   1.048   1.048
    10.00    1.048   1.048   1.048   1.048   1.048   1.048   1.048

   Mean standard deviation across all grid points:
      u component:    2.096 m/s
      v component:    1.677 m/s
      w component:    1.048 m/s


U-component (X) statistics from the interpolated hub point:

   Mean =  10.0000 m/s
   TI   =  20.9600 %


Normalizing Parameters for Binary Data (approximate statistics):

   UBar  =  10.0000 m/s
   TI(u) =  20.9600 %
   TI(v) =  16.7680 %
   TI(w) =  10.4800 %

   Height Offset =   0.0000 m
   Grid Base     =  10.0000 m

Creating a PERIODIC output file.
Creating a BLADED LEFT-HAND RULE output file.


Processing complete.  0.5 CPU seconds used.
