
 **************************************************************************************************
 OpenFAST

 Copyright (C) 2021 National Renewable Energy Laboratory
 Copyright (C) 2021 Envision Energy USA LTD

 This program is licensed under Apache License Version 2.0 and comes with ABSOLUTELY NO WARRANTY.
 See the "LICENSE" file distributed with this software for details.
 **************************************************************************************************

 OpenFAST-v2.4.0-138-g9a6c1967
 Compile Info:
  - Compiler: Intel(R) Fortran Intel(R) 64 Compiler Classic for applications running on Intel(R)
  64, Version 2021.1.2 Build 20201208_000000
  - Architecture: 64 bit
  - Precision: double
  - Date: Jan 12 2021
  - Time: 13:31:16
 Execution Info:
  - Date: 01/12/2021
  - Time: 14:06:07-0600

 OpenFAST input file heading:
     FAST Certification Test #06: AOC 15/50 with many DOFs with gen start, loss of grid, and
     tip-brake shutdown. Many parameters are pure fiction.

 Running ElastoDyn.
 Nodal outputs section of ElastoDyn input file not found or improperly formatted.
 Running AeroDyn14.
 Running InflowWind.
 Running ServoDyn.

 FAST_InitializeAll: IfW_Init:IfW_UniformWind_Init: Could not read upflow column in uniform wind
 files. Assuming upflow is 0.

  Time: 0 of 35 seconds.
+                                                                                                  
+ Time: 5 of 35 seconds.  Estimated final completion at 14:06:16.
+                                                                                                  
+ Time: 10 of 35 seconds.  Estimated final completion at 14:06:16.
+                                                                                                  
+ Time: 15 of 35 seconds.  Estimated final completion at 14:06:16.
+                                                                                                  
+ Time: 20 of 35 seconds.  Estimated final completion at 14:06:15.
+                                                                                                  
+ Time: 25 of 35 seconds.  Estimated final completion at 14:06:15.
+                                                                                                  
+ Time: 30 of 35 seconds.  Estimated final completion at 14:06:15.
+                                                                                                  
+ Time: 35 of 35 seconds.  Estimated final completion at 14:06:15.
+                                                                                                  

  Total Real Time:       8.02 seconds
  Total CPU Time:        8.0156 seconds
  Simulation CPU Time:   7.9219 seconds
  Simulated Time:        35 seconds
  Time Ratio (Sim/CPU):  4.4181

  OpenFAST terminated normally.

