
 **************************************************************************************************
 OpenFAST

 Copyright (C) 2021 National Renewable Energy Laboratory
 Copyright (C) 2021 Envision Energy USA LTD

 This program is licensed under Apache License Version 2.0 and comes with ABSOLUTELY NO WARRANTY.
 See the "LICENSE" file distributed with this software for details.
 **************************************************************************************************

 OpenFAST-v2.5.0-480-g1082ba16-dirty
 Compile Info:
  - Compiler: GCC version 10.2.0
  - Architecture: 64 bit
  - Precision: double
  - Date: Jan 22 2021
  - Time: 15:11:08
 Execution Info:
  - Date: 01/28/2021
  - Time: 09:25:34-0700

 OpenFAST input file heading:
     FAST Certification Test #20: NREL 5.0 MW Baseline Wind Turbine with OC3 Tripod Configuration,
     for use in offshore analysis

 Running ElastoDyn.
 Nodal outputs section of ElastoDyn input file not found or improperly formatted.
 Running AeroDyn.
 AD15 Nodal Outputs: Nodal output section of AeroDyn input file not found or improperly formatted.
 Skipping nodal outputs.
 Warning: Turning off Unsteady Aerodynamics because C_nalpha is 0. (node 1, blade 1)
 Warning: Turning off Unsteady Aerodynamics because C_nalpha is 0. (node 2, blade 1)
 Warning: Turning off Unsteady Aerodynamics because C_nalpha is 0. (node 3, blade 1)
 Warning: Turning off Unsteady Aerodynamics because C_nalpha is 0. (node 4, blade 1)
 Warning: Turning off Unsteady Aerodynamics because C_nalpha is 0. (node 1, blade 2)
 Warning: Turning off Unsteady Aerodynamics because C_nalpha is 0. (node 2, blade 2)
 Warning: Turning off Unsteady Aerodynamics because C_nalpha is 0. (node 3, blade 2)
 Warning: Turning off Unsteady Aerodynamics because C_nalpha is 0. (node 4, blade 2)
 Warning: Turning off Unsteady Aerodynamics because C_nalpha is 0. (node 1, blade 3)
 Warning: Turning off Unsteady Aerodynamics because C_nalpha is 0. (node 2, blade 3)
 Warning: Turning off Unsteady Aerodynamics because C_nalpha is 0. (node 3, blade 3)
 Warning: Turning off Unsteady Aerodynamics because C_nalpha is 0. (node 4, blade 3)
 Running InflowWind.
 Running ServoDyn.
 Running ServoDyn Interface for Bladed Controllers (using GNU Fortran for Linux, ).
 Using legacy Bladed DLL interface.
 Running HydroDyn.
  WARNING:  The requested output channel is invalid: M1N1FAxi
  WARNING:  The requested output channel is invalid: M1N1FAzi
  WARNING:   The random number generator in use differs from the original code provided by NREL.
  This pRNG uses 8 seeds instead of the 2 in the input file.
  Generating incident wave kinematics and current time history.
 Running SubDyn.
    Fixed bottom case detected
    Performing Craig-Bampton reduction 948 DOFs -> 12 modes + 6 DOFs
    Using static improvement method for gravity and ext. loads
    SubDyn recommended dt: 0.00782 - Current dt: 0.00800 - Max frequency: 6.39559
    Calculating Full System Modes for summary file

 FAST_InitializeAll:HydroDyn_Init:HydroDynInput_ProcessInitData: A requested output channel is
 invalid
 HydroDyn_Init:Waves_Init:VariousWaves_Init: The random number generator in use differs from the
 original code provided by NREL. This pRNG uses 8 seeds instead of the 2 in the HydroDyn input
 file.

  Time: 0 of 60 seconds.

 FAST_Solution:FAST_AdvanceStates:SrvD_UpdateStates:DLL_controller_call:BladedInterface option was
 designed for an explicit-loose coupling scheme. Using last calculated values from DLL on all
 subsequent calls until time is advanced. Warning will not be displayed again.

                                                                                                   Time: 1 of 60 seconds.  Estimated final completion at 10:02:32.                                                                                                                                     Time: 2 of 60 seconds.  Estimated final completion at 09:47:50.                                                                                                                                     Time: 3 of 60 seconds.  Estimated final completion at 09:44:14.                                                                                                                                     Time: 4 of 60 seconds.  Estimated final completion at 09:45:45.                                                                                                                                     Time: 5 of 60 seconds.  Estimated final completion at 09:49:13.                                                                                                                                     Time: 6 of 60 seconds.  Estimated final completion at 09:45:43.                                                                                                                                     Time: 7 of 60 seconds.  Estimated final completion at 09:44:00.                                                                                                                                     Time: 8 of 60 seconds.  Estimated final completion at 09:43:52.                                                                                                                                     Time: 9 of 60 seconds.  Estimated final completion at 09:44:16.                                                                                                                                     Time: 10 of 60 seconds.  Estimated final completion at 09:44:21.                                                                                                                                    Time: 11 of 60 seconds.  Estimated final completion at 09:47:41.                                                                                                                                    Time: 12 of 60 seconds.  Estimated final completion at 09:47:21.                                                                                                                                    Time: 13 of 60 seconds.  Estimated final completion at 09:46:47.                                                                                                                                    Time: 14 of 60 seconds.  Estimated final completion at 09:44:22.                                                                                                                                    Time: 15 of 60 seconds.  Estimated final completion at 09:43:42.                                                                                                                                    Time: 16 of 60 seconds.  Estimated final completion at 09:45:11.                                                                                                                                    Time: 17 of 60 seconds.  Estimated final completion at 09:46:16.                                                                                                                                    Time: 18 of 60 seconds.  Estimated final completion at 09:46:31.                                                                                                                                    Time: 19 of 60 seconds.  Estimated final completion at 09:46:07.                                                                                                                                    Time: 20 of 60 seconds.  Estimated final completion at 09:45:18.                                                                                                                                    Time: 21 of 60 seconds.  Estimated final completion at 09:43:07.                                                                                                                                    Time: 22 of 60 seconds.  Estimated final completion at 09:43:08.                                                                                                                                    Time: 23 of 60 seconds.  Estimated final completion at 09:44:35.                                                                                                                                    Time: 24 of 60 seconds.  Estimated final completion at 09:44:02.                                                                                                                                    Time: 25 of 60 seconds.  Estimated final completion at 09:44:20.                                                                                                                                    Time: 26 of 60 seconds.  Estimated final completion at 09:44:26.                                                                                                                                    Time: 27 of 60 seconds.  Estimated final completion at 09:43:47.                                                                                                                                    Time: 28 of 60 seconds.  Estimated final completion at 09:42:47.                                                                                                                                    Time: 29 of 60 seconds.  Estimated final completion at 09:42:47.                                                                                                                                    Time: 30 of 60 seconds.  Estimated final completion at 09:44:01.                                                                                                                                    Time: 31 of 60 seconds.  Estimated final completion at 09:45:20.                                                                                                                                    Time: 32 of 60 seconds.  Estimated final completion at 09:45:36.                                                                                                                                    Time: 33 of 60 seconds.  Estimated final completion at 09:44:31.                                                                                                                                    Time: 34 of 60 seconds.  Estimated final completion at 09:44:07.                                                                                                                                    Time: 35 of 60 seconds.  Estimated final completion at 09:44:37.                                                                                                                                    Time: 36 of 60 seconds.  Estimated final completion at 09:43:53.                                                                                                                                    Time: 37 of 60 seconds.  Estimated final completion at 09:47:24.                                                                                                                                    Time: 38 of 60 seconds.  Estimated final completion at 09:56:13.                                                                                                                                    Time: 39 of 60 seconds.  Estimated final completion at 09:50:36.                                                                                                                                    Time: 40 of 60 seconds.  Estimated final completion at 09:44:60.                                                                                                                                    Time: 41 of 60 seconds.  Estimated final completion at 09:44:28.                                                                                                                                    Time: 42 of 60 seconds.  Estimated final completion at 09:44:18.                                                                                                                                    Time: 43 of 60 seconds.  Estimated final completion at 09:44:24.                                                                                                                                    Time: 44 of 60 seconds.  Estimated final completion at 09:44:34.                                                                                                                                    Time: 45 of 60 seconds.  Estimated final completion at 09:44:40.                                                                                                                                    Time: 46 of 60 seconds.  Estimated final completion at 09:45:14.                                                                                                                                    Time: 47 of 60 seconds.  Estimated final completion at 09:45:33.                                                                                                                                    Time: 48 of 60 seconds.  Estimated final completion at 09:45:04.                                                                                                                                    Time: 49 of 60 seconds.  Estimated final completion at 09:44:49.                                                                                                                                    Time: 50 of 60 seconds.  Estimated final completion at 09:44:56.                                                                                                                                    Time: 51 of 60 seconds.  Estimated final completion at 09:44:57.                                                                                                                                    Time: 52 of 60 seconds.  Estimated final completion at 09:45:06.                                                                                                                                    Time: 53 of 60 seconds.  Estimated final completion at 09:45:06.                                                                                                                                    Time: 54 of 60 seconds.  Estimated final completion at 09:45:06.                                                                                                                                    Time: 55 of 60 seconds.  Estimated final completion at 09:45:07.                                                                                                                                    Time: 56 of 60 seconds.  Estimated final completion at 09:45:03.                                                                                                                                    Time: 57 of 60 seconds.  Estimated final completion at 09:45:12.                                                                                                                                    Time: 58 of 60 seconds.  Estimated final completion at 09:45:28.                                                                                                                                    Time: 59 of 60 seconds.  Estimated final completion at 09:45:28.                                                                                                                                    Time: 60 of 60 seconds.  Estimated final completion at 09:45:19.                                                                                                                                   
  Total Real Time:       19.749 minutes
  Total CPU Time:        18.871 minutes
  Simulation CPU Time:   18.355 minutes
  Simulated Time:        1.0001 minutes
  Time Ratio (Sim/CPU):  5.44871E-02

  OpenFAST terminated normally.

