
 **************************************************************************************************
 OpenFAST

 Copyright (C) 2022 National Renewable Energy Laboratory
 Copyright (C) 2022 Envision Energy USA LTD

 This program is licensed under Apache License Version 2.0 and comes with ABSOLUTELY NO WARRANTY.
 See the "LICENSE" file distributed with this software for details.
 **************************************************************************************************

 OpenFAST-v3.1.0-51-g6f0be900-dirty
 Compile Info:
  - Compiler: GCC version 10.3.0
  - Architecture: 64 bit
  - Precision: double
  - OpenMP: No
  - Date: Mar  9 2022
  - Time: 09:32:35
 Execution Info:
  - Date: 04/08/2022
  - Time: 15:20:04-0600

 OpenFAST input file heading:
     FAST Certification Test #25: NREL 5.0 MW Baseline Wind Turbine with OC4-DeepCwind semi
     configuration, for use in offshore analysis

 Running ElastoDyn.
 Nodal outputs section of ElastoDyn input file not found or improperly formatted.
 Running AeroDyn.
 AD15 Nodal Outputs: Nodal output section of AeroDyn input file not found or improperly formatted.
 Skipping nodal outputs.
 Warning: Turning off Unsteady Aerodynamics because UA parameters are not included in airfoil
 (airfoil has likely has constant polars). (node 1, blade 1)
 Warning: Turning off Unsteady Aerodynamics because UA parameters are not included in airfoil
 (airfoil has likely has constant polars). (node 2, blade 1)
 Warning: Turning off Unsteady Aerodynamics because UA parameters are not included in airfoil
 (airfoil has likely has constant polars). (node 3, blade 1)
 Warning: Turning off Unsteady Aerodynamics because UA parameters are not included in airfoil
 (airfoil has likely has constant polars). (node 4, blade 1)
 Warning: Turning off Unsteady Aerodynamics because UA parameters are not included in airfoil
 (airfoil has likely has constant polars). (node 1, blade 2)
 Warning: Turning off Unsteady Aerodynamics because UA parameters are not included in airfoil
 (airfoil has likely has constant polars). (node 2, blade 2)
 Warning: Turning off Unsteady Aerodynamics because UA parameters are not included in airfoil
 (airfoil has likely has constant polars). (node 3, blade 2)
 Warning: Turning off Unsteady Aerodynamics because UA parameters are not included in airfoil
 (airfoil has likely has constant polars). (node 4, blade 2)
 Warning: Turning off Unsteady Aerodynamics because UA parameters are not included in airfoil
 (airfoil has likely has constant polars). (node 1, blade 3)
 Warning: Turning off Unsteady Aerodynamics because UA parameters are not included in airfoil
 (airfoil has likely has constant polars). (node 2, blade 3)
 Warning: Turning off Unsteady Aerodynamics because UA parameters are not included in airfoil
 (airfoil has likely has constant polars). (node 3, blade 3)
 Warning: Turning off Unsteady Aerodynamics because UA parameters are not included in airfoil
 (airfoil has likely has constant polars). (node 4, blade 3)
 Running InflowWind.
 Running SeaState.
  Generating incident wave kinematics and current time history.
 Running HydroDyn.
  Reading in WAMIT output with root name
  "/Users/aplatt/software-development/GitHub/openfast-4/build/reg_tests/glue-codes/openfast/5MW_OC4
  Semi_WSt_WavesWN/../5MW_Baseline/HydroData/marin_semi".
  Computing radiation impulse response functions and wave diffraction forces.
  Calculating second order difference-frequency force using the full quadratic transfer function.
  Calculating second order sum-frequency force using the full quadratic transfer function.
 Running MoorDyn.
   MD_Init: Opening MoorDyn input file:
   /Users/aplatt/software-development/GitHub/openfast-4/build/reg_tests/glue-codes/openfast/5MW_OC4
   Semi_WSt_WavesWN/NRELOffshrBsline5MW_OC4DeepCwindSemi_MoorDyn.dat
   Creating mooring system.   3 fairleads, 3 anchors, 0 connects.
    Finalizing ICs using dynamic relaxation.

   t=2  FairTen 1: 1.03820E+06, 0, 0                                                                 t=4  FairTen 1: 9.95272E+05, 1.03820E+06, 0                                                       t=6  FairTen 1: 9.94915E+05, 9.95272E+05, 1.03820E+06                                             t=8  FairTen 1: 1.00676E+06, 9.94915E+05, 9.95272E+05                                             t=10  FairTen 1: 9.92989E+05, 1.00676E+06, 9.94915E+05                                            t=12  FairTen 1: 1.00241E+06, 9.92989E+05, 1.00676E+06                                            t=14  FairTen 1: 1.00567E+06, 1.00241E+06, 9.92989E+05                                            t=16  FairTen 1: 9.94751E+05, 1.00567E+06, 1.00241E+06                                            t=18  FairTen 1: 9.99281E+05, 9.94751E+05, 1.00567E+06                                             Fairlead tensions converged to 1% after 18 seconds.
 Running ServoDyn.
 Running ServoDyn Interface for Bladed Controllers (using GNU Fortran for Linux, ).
 Using legacy Bladed DLL interface.
  Time: 0 of 60 seconds.
                                                                                                   Time: 1 of 60 seconds.  Estimated final completion at 15:23:49.                                                                                                                                     Time: 2 of 60 seconds.  Estimated final completion at 15:23:44.                                                                                                                                     Time: 3 of 60 seconds.  Estimated final completion at 15:23:41.                                                                                                                                     Time: 4 of 60 seconds.  Estimated final completion at 15:23:43.                                                                                                                                     Time: 5 of 60 seconds.  Estimated final completion at 15:23:49.                                                                                                                                     Time: 6 of 60 seconds.  Estimated final completion at 15:23:49.                                                                                                                                     Time: 7 of 60 seconds.  Estimated final completion at 15:23:45.                                                                                                                                     Time: 8 of 60 seconds.  Estimated final completion at 15:23:42.                                                                                                                                     Time: 9 of 60 seconds.  Estimated final completion at 15:23:44.                                                                                                                                     Time: 10 of 60 seconds.  Estimated final completion at 15:23:39.                                                                                                                                    Time: 11 of 60 seconds.  Estimated final completion at 15:23:38.                                                                                                                                    Time: 12 of 60 seconds.  Estimated final completion at 15:23:39.                                                                                                                                    Time: 13 of 60 seconds.  Estimated final completion at 15:23:46.                                                                                                                                    Time: 14 of 60 seconds.  Estimated final completion at 15:23:41.                                                                                                                                    Time: 15 of 60 seconds.  Estimated final completion at 15:23:41.                                                                                                                                    Time: 16 of 60 seconds.  Estimated final completion at 15:23:40.                                                                                                                                    Time: 17 of 60 seconds.  Estimated final completion at 15:23:42.                                                                                                                                    Time: 18 of 60 seconds.  Estimated final completion at 15:23:40.                                                                                                                                    Time: 19 of 60 seconds.  Estimated final completion at 15:23:39.                                                                                                                                    Time: 20 of 60 seconds.  Estimated final completion at 15:23:41.                                                                                                                                    Time: 21 of 60 seconds.  Estimated final completion at 15:23:43.                                                                                                                                    Time: 22 of 60 seconds.  Estimated final completion at 15:23:41.                                                                                                                                    Time: 23 of 60 seconds.  Estimated final completion at 15:23:40.                                                                                                                                    Time: 24 of 60 seconds.  Estimated final completion at 15:23:39.                                                                                                                                    Time: 25 of 60 seconds.  Estimated final completion at 15:23:43.                                                                                                                                    Time: 26 of 60 seconds.  Estimated final completion at 15:23:40.                                                                                                                                    Time: 27 of 60 seconds.  Estimated final completion at 15:23:41.                                                                                                                                    Time: 28 of 60 seconds.  Estimated final completion at 15:23:41.                                                                                                                                    Time: 29 of 60 seconds.  Estimated final completion at 15:23:42.                                                                                                                                    Time: 30 of 60 seconds.  Estimated final completion at 15:23:40.                                                                                                                                    Time: 31 of 60 seconds.  Estimated final completion at 15:23:40.                                                                                                                                    Time: 32 of 60 seconds.  Estimated final completion at 15:23:41.                                                                                                                                    Time: 33 of 60 seconds.  Estimated final completion at 15:23:45.                                                                                                                                    Time: 34 of 60 seconds.  Estimated final completion at 15:23:41.                                                                                                                                    Time: 35 of 60 seconds.  Estimated final completion at 15:23:39.                                                                                                                                    Time: 36 of 60 seconds.  Estimated final completion at 15:23:40.                                                                                                                                    Time: 37 of 60 seconds.  Estimated final completion at 15:23:42.                                                                                                                                    Time: 38 of 60 seconds.  Estimated final completion at 15:23:41.                                                                                                                                    Time: 39 of 60 seconds.  Estimated final completion at 15:23:39.                                                                                                                                    Time: 40 of 60 seconds.  Estimated final completion at 15:23:39.                                                                                                                                    Time: 41 of 60 seconds.  Estimated final completion at 15:23:44.                                                                                                                                    Time: 42 of 60 seconds.  Estimated final completion at 15:23:42.                                                                                                                                    Time: 43 of 60 seconds.  Estimated final completion at 15:23:40.                                                                                                                                    Time: 44 of 60 seconds.  Estimated final completion at 15:23:40.                                                                                                                                    Time: 45 of 60 seconds.  Estimated final completion at 15:23:42.                                                                                                                                    Time: 46 of 60 seconds.  Estimated final completion at 15:23:40.                                                                                                                                    Time: 47 of 60 seconds.  Estimated final completion at 15:23:41.                                                                                                                                    Time: 48 of 60 seconds.  Estimated final completion at 15:23:40.                                                                                                                                    Time: 49 of 60 seconds.  Estimated final completion at 15:23:41.                                                                                                                                    Time: 50 of 60 seconds.  Estimated final completion at 15:23:41.                                                                                                                                    Time: 51 of 60 seconds.  Estimated final completion at 15:23:41.                                                                                                                                    Time: 52 of 60 seconds.  Estimated final completion at 15:23:40.                                                                                                                                    Time: 53 of 60 seconds.  Estimated final completion at 15:23:41.                                                                                                                                    Time: 54 of 60 seconds.  Estimated final completion at 15:23:41.                                                                                                                                    Time: 55 of 60 seconds.  Estimated final completion at 15:23:41.                                                                                                                                    Time: 56 of 60 seconds.  Estimated final completion at 15:23:41.                                                                                                                                    Time: 57 of 60 seconds.  Estimated final completion at 15:23:41.                                                                                                                                    Time: 58 of 60 seconds.  Estimated final completion at 15:23:41.                                                                                                                                    Time: 59 of 60 seconds.  Estimated final completion at 15:23:41.                                                                                                                                    Time: 60 of 60 seconds.  Estimated final completion at 15:23:41.                                                                                                                                   
  Total Real Time:       3.6115 minutes
  Total CPU Time:        3.5294 minutes
  Simulation CPU Time:   2.6607 minutes
  Simulated Time:        1 minutes
  Time Ratio (Sim/CPU):  0.37584

  OpenFAST terminated normally.

