
 **************************************************************************************************
 OpenFAST

 Copyright (C) 2022 National Renewable Energy Laboratory
 Copyright (C) 2022 Envision Energy USA LTD

 This program is licensed under Apache License Version 2.0 and comes with ABSOLUTELY NO WARRANTY.
 See the "LICENSE" file distributed with this software for details.
 **************************************************************************************************

 OpenFAST-v3.1.0-243-ge6028eae
 Compile Info:
  - Compiler: GCC version 10.4.0
  - Architecture: 64 bit
  - Precision: double
  - OpenMP: No
  - Date: Jul  6 2022
  - Time: 19:16:34
 Execution Info:
  - Date: 07/06/2022
  - Time: 19:40:49-0500

 OpenFAST input file heading:
     FAST Certification Test #11: WindPACT 1.5 MW Baseline with many DOFs undergoing a pitch
     failure.

 Running ElastoDyn.
 Nodal outputs section of ElastoDyn input file not found or improperly formatted.
 Running AeroDyn14.
  WARNING:   AeroDyn 14 is deprecated and will be removed in a future release.
 Running InflowWind.

    Reading a 7x7 grid (84 m wide, 42.288 m to 126.29 m above ground) with a characteristic wind
    speed of 12 m/s.

    Processed 940 time steps of 20-Hz full-field data (46.95 seconds).
 Running ServoDyn.
  Time: 0 of 20 seconds.
                                                                                                   Time: 1 of 20 seconds.  Estimated final completion at 19:41:03.                                                                                                                                     Time: 2 of 20 seconds.  Estimated final completion at 19:41:03.                                                                                                                                     Time: 3 of 20 seconds.  Estimated final completion at 19:41:04.                                                                                                                                     Time: 4 of 20 seconds.  Estimated final completion at 19:41:03.                                  
 ***********************************************
 Running with control option using data from:
  Speed controller for ADAMS WindPACT 15A1001 model April, 2002.
 ***********************************************

                                                                                                   Time: 5 of 20 seconds.  Estimated final completion at 19:41:03.                                                                                                                                     Time: 6 of 20 seconds.  Estimated final completion at 19:41:04.                                                                                                                                     Time: 7 of 20 seconds.  Estimated final completion at 19:41:03.                                                                                                                                     Time: 8 of 20 seconds.  Estimated final completion at 19:41:03.                                                                                                                                     Time: 9 of 20 seconds.  Estimated final completion at 19:41:04.                                                                                                                                     Time: 10 of 20 seconds.  Estimated final completion at 19:41:03.                                                                                                                                    Time: 11 of 20 seconds.  Estimated final completion at 19:41:03.                                                                                                                                    Time: 12 of 20 seconds.  Estimated final completion at 19:41:03.                                                                                                                                    Time: 13 of 20 seconds.  Estimated final completion at 19:41:03.                                                                                                                                    Time: 14 of 20 seconds.  Estimated final completion at 19:41:03.                                                                                                                                    Time: 15 of 20 seconds.  Estimated final completion at 19:41:03.                                                                                                                                    Time: 16 of 20 seconds.  Estimated final completion at 19:41:03.                                                                                                                                    Time: 17 of 20 seconds.  Estimated final completion at 19:41:03.                                                                                                                                    Time: 18 of 20 seconds.  Estimated final completion at 19:41:03.                                                                                                                                    Time: 19 of 20 seconds.  Estimated final completion at 19:41:03.                                                                                                                                    Time: 20 of 20 seconds.  Estimated final completion at 19:41:03.                                                                                                                                   
  Total Real Time:       13.732 seconds
  Total CPU Time:        13.694 seconds
  Simulation CPU Time:   13.657 seconds
  Simulated Time:        20 seconds
  Time Ratio (Sim/CPU):  1.4644

  OpenFAST terminated normally.

