
 **************************************************************************************************
 OpenFAST

 Copyright (C) 2020 National Renewable Energy Laboratory
 Copyright (C) 2020 Envision Energy USA LTD

 This program is licensed under Apache License Version 2.0 and comes with ABSOLUTELY NO WARRANTY.
 See the "LICENSE" file distributed with this software for details.
 **************************************************************************************************

 OpenFAST-v2.4.0-50-g416ff436-dirty
 Compile Info:
  - Compiler: Intel(R) Fortran Intel(R) 64 Compiler for applications running on Intel(R) 64,
  Version 19.0.8.324 Build 20200220
  - Architecture: 64 bit
  - Precision: double
  - Date: Nov 06 2020
  - Time: 13:37:52
 Execution Info:
  - Date: 11/06/2020
  - Time: 13:58:11-0600

 OpenFAST input file heading:
     FAST Certification Test #17: SWRT 3-bladed upwind turbine with many DOFs, variable speed
     control, free yaw, tail-furl, FF turbulence

 Running ElastoDyn.
 Nodal outputs section of ElastoDyn input file not found or improperly formatted.
 Running AeroDyn14.
 Running InflowWind.

    Reading a 6x6 grid (8 m wide, 30.619 m to 38.619 m above ground) with a characteristic wind
    speed of 16 m/s.

    Processed 1410 time steps of 20-Hz full-field data (70.45 seconds).
 Running ServoDyn.
  Time: 0 of 70 seconds.

  Using variable speed generator option.
    RPM and Torque (Nm) for SWRT rotor mod by CH Aug 9, 2004 with new test data.  See Config B
    Torque vs RPM.xls

+                                                                                                  
+ Time: 1 of 70 seconds.  Estimated final completion at 14:00:30.
+                                                                                                  
+ Time: 2 of 70 seconds.  Estimated final completion at 14:00:31.
+                                                                                                  
+ Time: 3 of 70 seconds.  Estimated final completion at 14:00:27.
+                                                                                                  
+ Time: 4 of 70 seconds.  Estimated final completion at 14:00:29.
+                                                                                                  
+ Time: 5 of 70 seconds.  Estimated final completion at 14:00:26.
+                                                                                                  
+ Time: 6 of 70 seconds.  Estimated final completion at 14:00:25.
+                                                                                                  
+ Time: 7 of 70 seconds.  Estimated final completion at 14:00:37.
+                                                                                                  
+ Time: 8 of 70 seconds.  Estimated final completion at 14:00:31.
+                                                                                                  
+ Time: 9 of 70 seconds.  Estimated final completion at 14:00:27.
+                                                                                                  
+ Time: 10 of 70 seconds.  Estimated final completion at 14:00:38.
+                                                                                                  
+ Time: 11 of 70 seconds.  Estimated final completion at 14:00:43.
+                                                                                                  
+ Time: 12 of 70 seconds.  Estimated final completion at 14:00:35.
+                                                                                                  
+ Time: 13 of 70 seconds.  Estimated final completion at 14:00:32.
+                                                                                                  
+ Time: 14 of 70 seconds.  Estimated final completion at 14:00:34.
+                                                                                                  
+ Time: 15 of 70 seconds.  Estimated final completion at 14:00:42.
+                                                                                                  
+ Time: 16 of 70 seconds.  Estimated final completion at 14:00:32.
+                                                                                                  
+ Time: 17 of 70 seconds.  Estimated final completion at 14:00:40.
+                                                                                                  
+ Time: 18 of 70 seconds.  Estimated final completion at 14:00:29.
+                                                                                                  
+ Time: 19 of 70 seconds.  Estimated final completion at 14:00:35.
+                                                                                                  
+ Time: 20 of 70 seconds.  Estimated final completion at 14:00:32.
+                                                                                                  
+ Time: 21 of 70 seconds.  Estimated final completion at 14:00:35.
+                                                                                                  
+ Time: 22 of 70 seconds.  Estimated final completion at 14:00:34.
+                                                                                                  
+ Time: 23 of 70 seconds.  Estimated final completion at 14:00:31.
+                                                                                                  
+ Time: 24 of 70 seconds.  Estimated final completion at 14:00:30.
+                                                                                                  
+ Time: 25 of 70 seconds.  Estimated final completion at 14:00:33.
+                                                                                                  
+ Time: 26 of 70 seconds.  Estimated final completion at 14:00:35.
+                                                                                                  
+ Time: 27 of 70 seconds.  Estimated final completion at 14:00:32.
+                                                                                                  
+ Time: 28 of 70 seconds.  Estimated final completion at 14:00:35.
+                                                                                                  
+ Time: 29 of 70 seconds.  Estimated final completion at 14:00:37.
+                                                                                                  
+ Time: 30 of 70 seconds.  Estimated final completion at 14:00:31.
+                                                                                                  
+ Time: 31 of 70 seconds.  Estimated final completion at 14:00:32.
+                                                                                                  
+ Time: 32 of 70 seconds.  Estimated final completion at 14:00:33.
+                                                                                                  
+ Time: 33 of 70 seconds.  Estimated final completion at 14:00:33.
+                                                                                                  
+ Time: 34 of 70 seconds.  Estimated final completion at 14:00:34.
+                                                                                                  
+ Time: 35 of 70 seconds.  Estimated final completion at 14:00:38.
+                                                                                                  
+ Time: 36 of 70 seconds.  Estimated final completion at 14:00:35.
+                                                                                                  
+ Time: 37 of 70 seconds.  Estimated final completion at 14:00:33.
+                                                                                                  
+ Time: 38 of 70 seconds.  Estimated final completion at 14:00:34.
+                                                                                                  
+ Time: 39 of 70 seconds.  Estimated final completion at 14:00:39.
+                                                                                                  
+ Time: 40 of 70 seconds.  Estimated final completion at 14:00:37.
+                                                                                                  
+ Time: 41 of 70 seconds.  Estimated final completion at 14:00:36.
+                                                                                                  
+ Time: 42 of 70 seconds.  Estimated final completion at 14:00:33.
+                                                                                                  
+ Time: 43 of 70 seconds.  Estimated final completion at 14:00:33.
+                                                                                                  
+ Time: 44 of 70 seconds.  Estimated final completion at 14:00:35.
+                                                                                                  
+ Time: 45 of 70 seconds.  Estimated final completion at 14:00:33.
+                                                                                                  
+ Time: 46 of 70 seconds.  Estimated final completion at 14:00:33.
+                                                                                                  
+ Time: 47 of 70 seconds.  Estimated final completion at 14:00:35.
+                                                                                                  
+ Time: 48 of 70 seconds.  Estimated final completion at 14:00:36.
+                                                                                                  
+ Time: 49 of 70 seconds.  Estimated final completion at 14:00:34.
+                                                                                                  
+ Time: 50 of 70 seconds.  Estimated final completion at 14:00:37.
+                                                                                                  
+ Time: 51 of 70 seconds.  Estimated final completion at 14:00:35.
+                                                                                                  
+ Time: 52 of 70 seconds.  Estimated final completion at 14:00:35.
+                                                                                                  
+ Time: 53 of 70 seconds.  Estimated final completion at 14:00:36.
+                                                                                                  
+ Time: 54 of 70 seconds.  Estimated final completion at 14:00:35.
+                                                                                                  
+ Time: 55 of 70 seconds.  Estimated final completion at 14:00:35.
+                                                                                                  
+ Time: 56 of 70 seconds.  Estimated final completion at 14:00:35.
+                                                                                                  
+ Time: 57 of 70 seconds.  Estimated final completion at 14:00:34.
+                                                                                                  
+ Time: 58 of 70 seconds.  Estimated final completion at 14:00:35.
+                                                                                                  
+ Time: 59 of 70 seconds.  Estimated final completion at 14:00:34.
+                                                                                                  
+ Time: 60 of 70 seconds.  Estimated final completion at 14:00:35.
+                                                                                                  
+ Time: 61 of 70 seconds.  Estimated final completion at 14:00:34.
+                                                                                                  
+ Time: 62 of 70 seconds.  Estimated final completion at 14:00:35.
+                                                                                                  
+ Time: 63 of 70 seconds.  Estimated final completion at 14:00:34.
+                                                                                                  
+ Time: 64 of 70 seconds.  Estimated final completion at 14:00:35.
+                                                                                                  
+ Time: 65 of 70 seconds.  Estimated final completion at 14:00:35.
+                                                                                                  
+ Time: 66 of 70 seconds.  Estimated final completion at 14:00:35.
+                                                                                                  
+ Time: 67 of 70 seconds.  Estimated final completion at 14:00:34.
+                                                                                                  
+ Time: 68 of 70 seconds.  Estimated final completion at 14:00:34.
+                                                                                                  
+ Time: 69 of 70 seconds.  Estimated final completion at 14:00:35.
+                                                                                                  
+ Time: 70 of 70 seconds.  Estimated final completion at 14:00:35.
+                                                                                                  

  Total Real Time:       2.3846 minutes
  Total CPU Time:        2.3828 minutes
  Simulation CPU Time:   2.3813 minutes
  Simulated Time:        1.1667 minutes
  Time Ratio (Sim/CPU):  0.48994

  OpenFAST terminated normally.

