
 **************************************************************************************************
 FAST.Farm

 Copyright (C) 2024 National Renewable Energy Laboratory
 Copyright (C) 2024 Envision Energy USA LTD

 This program is licensed under Apache License Version 2.0 and comes with ABSOLUTELY NO WARRANTY.
 See the "LICENSE" file distributed with this software for details.
 **************************************************************************************************

 FAST.Farm--128-NOTFOUND
 Compile Info:
  - Compiler: GCC version 12.3.0
  - Architecture: 64 bit
  - Precision: double
  - OpenMP: Yes, number of threads: 4/4
  - Date: May 30 2024
  - Time: 23:36:36
 Execution Info:
  - Date: 05/30/2024
  - Time: 23:58:00+0000

  Heading of the FAST.Farm input file:
    FAST.Farm     input         - file, using two turbines separated by 3D downstream and an
    offset of 30m, with a turbulent inflow given by one turbsim box
   Wake-Added Turbulence (WAT): coefficients:
                 k_c      f_min    D_min    D_max    e
        k_Def    0.600    0.000    0.000    2.000    1.000
       k_Grad    3.000    0.000    0.000   12.000    0.650

    Reading HAWC wind files with grids of 512 x 512 x 64 points (2555 m wide, 2.5 m to 317.5 m
    above ground) with a characteristic wind speed of 1 m/s.
  Running AWAE.
  Running InflowWind.

    Reading a 25x7 grid (840 m wide, 1 m to 211 m above ground) with a characteristic wind speed
    of 8.3109 m/s. This full-field file was generated by TurbSim on 28-Jul-2023 at 11:52:39.

    Processed 20 time steps of 2-Hz grid-field data (period of 10 seconds).
  Running InflowWind.

    Reading a 91x63 grid (450 m wide, 1 m to 311 m above ground) with a characteristic wind speed
    of 8.9787 m/s. This full-field file was generated by TurbSim on 28-Jul-2023 at 11:52:39.

    Processed 20 time steps of 2-Hz grid-field data (period of 10 seconds).
  Running InflowWind.

    Reading a 91x63 grid (450 m wide, 1 m to 311 m above ground) with a characteristic wind speed
    of 8.9787 m/s. This full-field file was generated by TurbSim on 28-Jul-2023 at 11:52:39.

    Processed 20 time steps of 2-Hz grid-field data (period of 10 seconds).
  Running InflowWind.

    Reading a 91x63 grid (450 m wide, 1 m to 311 m above ground) with a characteristic wind speed
    of 8.9787 m/s. This full-field file was generated by TurbSim on 28-Jul-2023 at 11:52:39.

    Processed 20 time steps of 2-Hz grid-field data (period of 10 seconds).
  Running InflowWind.

    Reading a 91x63 grid (450 m wide, 1 m to 311 m above ground) with a characteristic wind speed
    of 8.9787 m/s. This full-field file was generated by TurbSim on 28-Jul-2023 at 11:52:39.

    Processed 20 time steps of 2-Hz grid-field data (period of 10 seconds).
  Running WakeDynamics.
  Running FASTWrapper.
  Running OpenFAST.
 OpenFAST input file heading:
     FAST          Certification - Test #26: NREL 5.0 MW Baseline Wind Turbine (Onshore)

  Running ElastoDyn.
 Nodal outputs section of ElastoDyn input file not found or improperly formatted.
  Running InflowWind.
  Running AeroDyn.
    AeroDyn: projMod: 1
    Projection: legacy (NoSweepPitchTwist), BEM: legacy (2D)
  Running ServoDyn.
  Running ServoDyn Interface for Bladed Controllers (using GNU Fortran for Linux).
 Using legacy Bladed DLL interface.
  Running OpenFAST.
 OpenFAST input file heading:
     FAST          Certification - Test #26: NREL 5.0 MW Baseline Wind Turbine (Onshore)

  Running ElastoDyn.
 Nodal outputs section of ElastoDyn input file not found or improperly formatted.
  Running InflowWind.
  Running AeroDyn.
    AeroDyn: projMod: 1
    Projection: legacy (NoSweepPitchTwist), BEM: legacy (2D)
  Running ServoDyn.
  Running ServoDyn Interface for Bladed Controllers (using GNU Fortran for Linux).
 Using legacy Bladed DLL interface.
  Running OpenFAST.
 OpenFAST input file heading:
     FAST          Certification - Test #26: NREL 5.0 MW Baseline Wind Turbine (Onshore)

  Running ElastoDyn.
 Nodal outputs section of ElastoDyn input file not found or improperly formatted.
  Running InflowWind.
  Running AeroDyn.
    AeroDyn: projMod: 1
    Projection: legacy (NoSweepPitchTwist), BEM: legacy (2D)
  Running ServoDyn.
  Running ServoDyn Interface for Bladed Controllers (using GNU Fortran for Linux).
 Using legacy Bladed DLL interface.
  Running OpenFAST.
 OpenFAST input file heading:
     FAST          Certification - Test #26: NREL 5.0 MW Baseline Wind Turbine (Onshore)

  Running ElastoDyn.
 Nodal outputs section of ElastoDyn input file not found or improperly formatted.
  Running InflowWind.
  Running AeroDyn.
    AeroDyn: projMod: 1
    Projection: legacy (NoSweepPitchTwist), BEM: legacy (2D)
  Running ServoDyn.
  Running ServoDyn Interface for Bladed Controllers (using GNU Fortran for Linux).
 Using legacy Bladed DLL interface.

 Farm_Initialize:For efficiency, NumPlanes has been reduced to the number of time steps (3).

  Time: 0 of 10 seconds.
                                                                                                   Time: 4 of 10 seconds.  Estimated final completion at 23:58:22.                                                                                                                                     Time: 8 of 10 seconds.  Estimated final completion at 23:58:16.                                                                                                                                    
  Total Real Time:       13.984 seconds
  Total CPU Time:        20.272 seconds
  Simulation CPU Time:   14.764 seconds
  Simulated Time:        8 seconds
  Time Ratio (Sim/CPU):  0.54185

  FAST.Farm terminated normally.

