
**************************************************************************************************
OpenFAST

Copyright (C) 2021 National Renewable Energy Laboratory
Copyright (C) 2021 Envision Energy USA LTD

This program is licensed under Apache License Version 2.0 and comes with ABSOLUTELY NO WARRANTY.
See the "LICENSE" file distributed with this software for details.
**************************************************************************************************

OpenFAST--128-NOTFOUND
Compile Info:
 - Compiler: Intel(R) Fortran Intel(R) 64 Compiler Classic for applications running on Intel(R)
 64, Version 2021.1 Build 20201112_000000
 - Architecture: 64 bit
 - Precision: double
 - Date: Mar 08 2021
 - Time: 14:29:07
Execution Info:
 - Date: 03/08/2021
 - Time: 15:02:09-0600

OpenFAST input file heading:
    FAST Certification Test #15: SWRT 3-bladed upwind turbine with many DOFs, variable speed
    control, free yaw, tail-furl, EOG01 event

Running ElastoDyn.
Nodal outputs section of ElastoDyn input file not found or improperly formatted.
Running AeroDyn.
AD15 Nodal Outputs: Nodal output section of AeroDyn input file not found or improperly formatted.
Skipping nodal outputs.
Running InflowWind.
Running ServoDyn.

FAST_InitializeAll: IfW_Init:IfW_UniformWind_Init: Could not read upflow column in uniform wind
files. Assuming upflow is 0.

 Time: 0 of 20 seconds.

 Using variable speed generator option.
   RPM and Torque (Nm) for SWRT rotor mod by CH Aug 9, 2004 with new test data.  See Config B
   Torque vs RPM.xls


FAST_Solution:CalcOutputs_And_SolveForInputs:SolveOption2:AD_CalcOutput:BEMT_CalcOutput(node 1,
blade 1):UA_CalcOutput:UA_BlendSteady:Temporarily turning off UA due to high angle of attack or
low relative velocity. This warning will not be repeated though the condition may persist.
                                                                                                   Time: 1 of 20 seconds.  Estimated final completion at 15:05:12.                                                                                                   Time: 2 of 20 seconds.  Estimated final completion at 15:05:06.                                                                                                   Time: 3 of 20 seconds.  Estimated final completion at 15:05:05.                                                                                                   Time: 4 of 20 seconds.  Estimated final completion at 15:05:04.                                                                                                   Time: 5 of 20 seconds.  Estimated final completion at 15:05:03.                                                                                                   Time: 6 of 20 seconds.  Estimated final completion at 15:05:03.                                                                                                   Time: 7 of 20 seconds.  Estimated final completion at 15:05:04.                                                                                                   Time: 8 of 20 seconds.  Estimated final completion at 15:05:26.                                                                                                   Time: 9 of 20 seconds.  Estimated final completion at 15:05:39.                                                                                                   Time: 10 of 20 seconds.  Estimated final completion at 15:05:23.                                                                                                   Time: 11 of 20 seconds.  Estimated final completion at 15:05:13.                                                                                                   Time: 12 of 20 seconds.  Estimated final completion at 15:05:07.                                                                                                   Time: 13 of 20 seconds.  Estimated final completion at 15:05:08.

FAST_Solution:CalcOutputs_And_SolveForInputs:SolveOption2:AD_CalcOutput:BEMT_CalcOutput(node 17,
blade 1):UA_CalcOutput:Mach number exceeds 0.3. Theory is invalid. This warning will not be
repeated though the condition may persist.
                                                                                                   Time: 14 of 20 seconds.  Estimated final completion at 15:05:09.                                                                                                   Time: 15 of 20 seconds.  Estimated final completion at 15:05:09.                                                                                                   Time: 16 of 20 seconds.  Estimated final completion at 15:05:09.                                                                                                   Time: 17 of 20 seconds.  Estimated final completion at 15:05:09.                                                                                                   Time: 18 of 20 seconds.  Estimated final completion at 15:05:09.                                                                                                   Time: 19 of 20 seconds.  Estimated final completion at 15:05:09.                                                                                                   Time: 20 of 20 seconds.  Estimated final completion at 15:05:09.                                                                                                  

 Total Real Time:       2.9952 minutes
 Total CPU Time:        2.8542 minutes
 Simulation CPU Time:   2.8526 minutes
 Simulated Time:        0.33333 minutes
 Time Ratio (Sim/CPU):  0.11685

 OpenFAST terminated normally.

