
 **************************************************************************************************
 OpenFAST (v8.17.01b-dev, 18-Jan-2017)

 Copyright (C) 2017 National Renewable Energy Laboratory

 This program comes with ABSOLUTELY NO WARRANTY. See the "license.txt" file distributed with this
 software for details.
 **************************************************************************************************

  Running OpenFAST (v8.17.01b-dev, 18-Jan-2017), compiled as a 64-bit application using double
  precision
  linked with NWTC Subroutine Library (v2.11.00, 12-Nov-2016)

  Heading of the OpenFAST input file:
    FAST Certification Test #09: UAE Phase VI (downwind) with many DOFs with yaw ramp and a steady
    wind.

  Running ElastoDyn (v1.04.00a-bjj, 26-Jul-2016).

  Running AeroDyn14 (v14.05.01a-bjj, 25-Jul-2016).

  Running InflowWind (v3.03.00, 26-Jul-2016).
  Opening InflowWind input file:  ./UAE_VI/Test09_InflowWind.dat
    Processed 3 records of uniform wind data from './UAE_VI/Wind/Shr11_30.wnd'

  Running ServoDyn (v1.06.00a-bjj, 26-Jul-2016).
  Timestep: 0 of 40 seconds.
+                                                                                                  
+ Timestep: 2 of 40 seconds. Estimated final completion at 14:33:19.
+                                                                                                  
+ Timestep: 4 of 40 seconds. Estimated final completion at 14:33:19.
+                                                                                                  
+ Timestep: 6 of 40 seconds. Estimated final completion at 14:33:19.
+                                                                                                  
+ Timestep: 8 of 40 seconds. Estimated final completion at 14:33:18.
+                                                                                                  
+ Timestep: 10 of 40 seconds. Estimated final completion at 14:33:18.
+                                                                                                  
+ Timestep: 12 of 40 seconds. Estimated final completion at 14:33:19.
+                                                                                                  
+ Timestep: 14 of 40 seconds. Estimated final completion at 14:33:18.
+                                                                                                  
+ Timestep: 16 of 40 seconds. Estimated final completion at 14:33:18.
+                                                                                                  
+ Timestep: 18 of 40 seconds. Estimated final completion at 14:33:18.
+                                                                                                  
+ Timestep: 20 of 40 seconds. Estimated final completion at 14:33:18.
+                                                                                                  
+ Timestep: 22 of 40 seconds. Estimated final completion at 14:33:18.
+                                                                                                  
+ Timestep: 24 of 40 seconds. Estimated final completion at 14:33:18.
+                                                                                                  
+ Timestep: 26 of 40 seconds. Estimated final completion at 14:33:18.
+                                                                                                  
+ Timestep: 28 of 40 seconds. Estimated final completion at 14:33:18.
+                                                                                                  
+ Timestep: 30 of 40 seconds. Estimated final completion at 14:33:18.
+                                                                                                  
+ Timestep: 32 of 40 seconds. Estimated final completion at 14:33:18.
+                                                                                                  
+ Timestep: 34 of 40 seconds. Estimated final completion at 14:33:18.
+                                                                                                  
+ Timestep: 36 of 40 seconds. Estimated final completion at 14:33:18.
+                                                                                                  
+ Timestep: 38 of 40 seconds. Estimated final completion at 14:33:18.
+                                                                                                  

  Total Real Time:       51.042 seconds
  Total CPU Time:        50.91 seconds
  Simulation CPU Time:   50.896 seconds
  Simulated Time:        40.002 seconds
  Time Ratio (Sim/CPU):  0.78595

  OpenFAST terminated normally.

