
 **************************************************************************************************
 OpenFAST (v8.17.01b-dev, 18-Jan-2017)

 Copyright (C) 2017 National Renewable Energy Laboratory

 This program comes with ABSOLUTELY NO WARRANTY. See the "license.txt" file distributed with this
 software for details.
 **************************************************************************************************

  Running OpenFAST (v8.17.01b-dev, 18-Jan-2017), compiled as a 64-bit application using double
  precision
  linked with NWTC Subroutine Library (v2.11.00, 12-Nov-2016)

  Heading of the OpenFAST input file:
    FAST Certification Test #16: SWRT 3-bladed upwind turbine with many DOFs, variable speed
    control, free yaw, tail-furl, EDC01 event

  Running ElastoDyn (v1.04.00a-bjj, 26-Jul-2016).

  Running AeroDyn14 (v14.05.01a-bjj, 25-Jul-2016).

  Running InflowWind (v3.03.00, 26-Jul-2016).
  Opening InflowWind input file:  ./SWRT/Test16_InflowWind.dat
    Processed 603 records of uniform wind data from './SWRT/Wind/EDC_01NR.wnd'

  Running ServoDyn (v1.06.00a-bjj, 26-Jul-2016).
  Timestep: 0 of 20 seconds.

  Using variable speed generator option.
    RPM and Torque (Nm) for SWRT rotor mod by CH Aug 9, 2004 with new test data.  See Config B
    Torque vs RPM.xls

+                                                                                                  
+ Timestep: 1 of 20 seconds. Estimated final completion at 14:38:05.
+                                                                                                  
+ Timestep: 2 of 20 seconds. Estimated final completion at 14:38:06.
+                                                                                                  
+ Timestep: 3 of 20 seconds. Estimated final completion at 14:38:06.
+                                                                                                  
+ Timestep: 4 of 20 seconds. Estimated final completion at 14:38:06.
+                                                                                                  
+ Timestep: 5 of 20 seconds. Estimated final completion at 14:38:06.
+                                                                                                  
+ Timestep: 6 of 20 seconds. Estimated final completion at 14:38:06.
+                                                                                                  
+ Timestep: 7 of 20 seconds. Estimated final completion at 14:38:05.
+                                                                                                  
+ Timestep: 8 of 20 seconds. Estimated final completion at 14:38:06.
+                                                                                                  
+ Timestep: 9 of 20 seconds. Estimated final completion at 14:38:06.
+                                                                                                  
+ Timestep: 10 of 20 seconds. Estimated final completion at 14:38:06.
+                                                                                                  
+ Timestep: 11 of 20 seconds. Estimated final completion at 14:38:06.
+                                                                                                  
+ Timestep: 12 of 20 seconds. Estimated final completion at 14:38:06.
+                                                                                                  
+ Timestep: 13 of 20 seconds. Estimated final completion at 14:38:06.
+                                                                                                  
+ Timestep: 14 of 20 seconds. Estimated final completion at 14:38:06.
+                                                                                                  
+ Timestep: 15 of 20 seconds. Estimated final completion at 14:38:06.
+                                                                                                  
+ Timestep: 16 of 20 seconds. Estimated final completion at 14:38:06.
+                                                                                                  
+ Timestep: 17 of 20 seconds. Estimated final completion at 14:38:06.
+                                                                                                  
+ Timestep: 18 of 20 seconds. Estimated final completion at 14:38:06.
+                                                                                                  
+ Timestep: 19 of 20 seconds. Estimated final completion at 14:38:06.
+                                                                                                  
+ Timestep: 20 of 20 seconds. Estimated final completion at 14:38:06.
+                                                                                                  

  Total Real Time:       1.1092 minutes
  Total CPU Time:        1.1066 minutes
  Simulation CPU Time:   1.1063 minutes
  Simulated Time:        0.33333 minutes
  Time Ratio (Sim/CPU):  0.3013

  OpenFAST terminated normally.

