
 **************************************************************************************************
 OpenFAST (v8.17.01b-dev, 18-Jan-2017)

 Copyright (C) 2017 National Renewable Energy Laboratory

 This program comes with ABSOLUTELY NO WARRANTY. See the "license.txt" file distributed with this
 software for details.
 **************************************************************************************************

  Running OpenFAST (v8.17.01b-dev, 18-Jan-2017), compiled as a 64-bit application using double
  precision
  linked with NWTC Subroutine Library (v2.11.00, 12-Nov-2016)

  Heading of the OpenFAST input file:
    FAST Certification Test #01: AWT-27CR2 with many DOFs with fixed yaw error and steady wind

  Running ElastoDyn (v1.04.00a-bjj, 26-Jul-2016).

  Running AeroDyn14 (v14.05.01a-bjj, 25-Jul-2016).

  Running InflowWind (v3.03.00, 26-Jul-2016).
  Opening InflowWind input file:  ./AWT27/Test01_InflowWind.dat

  Running ServoDyn (v1.06.00a-bjj, 26-Jul-2016).
  Timestep: 0 of 20 seconds.
+                                                                                                  
+ Timestep: 2 of 20 seconds. Estimated final completion at 12:27:15.
+                                                                                                  
+ Timestep: 4 of 20 seconds. Estimated final completion at 12:27:15.
+                                                                                                  
+ Timestep: 6 of 20 seconds. Estimated final completion at 12:27:15.
+                                                                                                  
+ Timestep: 8 of 20 seconds. Estimated final completion at 12:27:15.
+                                                                                                  
+ Timestep: 10 of 20 seconds. Estimated final completion at 12:27:15.
+                                                                                                  
+ Timestep: 12 of 20 seconds. Estimated final completion at 12:27:15.
+                                                                                                  
+ Timestep: 14 of 20 seconds. Estimated final completion at 12:27:15.
+                                                                                                  
+ Timestep: 16 of 20 seconds. Estimated final completion at 12:27:15.
+                                                                                                  
+ Timestep: 18 of 20 seconds. Estimated final completion at 12:27:15.
+                                                                                                  
+ Timestep: 20 of 20 seconds. Estimated final completion at 12:27:15.
+                                                                                                  

  Total Real Time:       8.394 seconds
  Total CPU Time:        8.3537 seconds
  Simulation CPU Time:   8.3407 seconds
  Simulated Time:        20 seconds
  Time Ratio (Sim/CPU):  2.3979

  OpenFAST terminated normally.

