
 **************************************************************************************************
 OpenFAST (v8.17.01b-dev, 18-Jan-2017)

 Copyright (C) 2017 National Renewable Energy Laboratory

 This program comes with ABSOLUTELY NO WARRANTY. See the "license.txt" file distributed with this
 software for details.
 **************************************************************************************************

  Running OpenFAST (v8.17.01b-dev, 18-Jan-2017), compiled as a 64-bit application using double
  precision
  linked with NWTC Subroutine Library (v2.11.00, 12-Nov-2016)

  Heading of the OpenFAST input file:
    FAST Certification Test #06: AOC 15/50 with many DOFs with gen start, loss of grid, and
    tip-brake shutdown. Many parameters are pure fiction.

  Running ElastoDyn (v1.04.00a-bjj, 26-Jul-2016).

  Running AeroDyn14 (v14.05.01a-bjj, 25-Jul-2016).

  Running InflowWind (v3.03.00, 26-Jul-2016).
  Opening InflowWind input file:  ./AOC/Test06_InflowWind.dat
    Processed 3 records of uniform wind data from './AOC/Wind/NoShr_12.wnd'

  Running ServoDyn (v1.06.00a-bjj, 26-Jul-2016).
  Timestep: 0 of 35 seconds.
+                                                                                                  
+ Timestep: 5 of 35 seconds. Estimated final completion at 12:29:33.
+                                                                                                  
+ Timestep: 10 of 35 seconds. Estimated final completion at 12:29:33.
+                                                                                                  
+ Timestep: 15 of 35 seconds. Estimated final completion at 12:29:33.
+                                                                                                  
+ Timestep: 20 of 35 seconds. Estimated final completion at 12:29:33.
+                                                                                                  
+ Timestep: 25 of 35 seconds. Estimated final completion at 12:29:33.
+                                                                                                  
+ Timestep: 30 of 35 seconds. Estimated final completion at 12:29:33.
+                                                                                                  
+ Timestep: 35 of 35 seconds. Estimated final completion at 12:29:33.
+                                                                                                  

  Total Real Time:       11.325 seconds
  Total CPU Time:        11.287 seconds
  Simulation CPU Time:   11.278 seconds
  Simulated Time:        35 seconds
  Time Ratio (Sim/CPU):  3.1033

  OpenFAST terminated normally.

