
 **************************************************************************************************
 OpenFAST (v8.17.01b-dev, 18-Jan-2017)

 Copyright (C) 2017 National Renewable Energy Laboratory

 This program comes with ABSOLUTELY NO WARRANTY. See the "license.txt" file distributed with this
 software for details.
 **************************************************************************************************

  Running OpenFAST (v8.17.01b-dev, 18-Jan-2017), compiled as a 64-bit application using double
  precision
  linked with NWTC Subroutine Library (v2.11.00, 12-Nov-2016)

  Heading of the OpenFAST input file:
    FAST Certification Test #21: NREL 5.0 MW Baseline Offshore Turbine with OC4 Jacket
    Configuration

  Running ElastoDyn (v1.04.00a-bjj, 26-Jul-2016).

  Running AeroDyn (v15.04.02a, 10-May-2017).

  Running AirfoilInfo (v1.01.01a, 10-May-2017).

  Running BEM (v1.03.00, 29-Oct-2016).

  Running UnsteadyAero (v1.01.00a, 10-May-2017).
 Warning: Turning off Unsteady Aerodynamics because C_nalpha is 0.  BladeNode = 1, Blade = 1
 Warning: Turning off Unsteady Aerodynamics because C_nalpha is 0.  BladeNode = 2, Blade = 1
 Warning: Turning off Unsteady Aerodynamics because C_nalpha is 0.  BladeNode = 3, Blade = 1
 Warning: Turning off Unsteady Aerodynamics because C_nalpha is 0.  BladeNode = 4, Blade = 1
 Warning: Turning off Unsteady Aerodynamics because C_nalpha is 0.  BladeNode = 1, Blade = 2
 Warning: Turning off Unsteady Aerodynamics because C_nalpha is 0.  BladeNode = 2, Blade = 2
 Warning: Turning off Unsteady Aerodynamics because C_nalpha is 0.  BladeNode = 3, Blade = 2
 Warning: Turning off Unsteady Aerodynamics because C_nalpha is 0.  BladeNode = 4, Blade = 2
 Warning: Turning off Unsteady Aerodynamics because C_nalpha is 0.  BladeNode = 1, Blade = 3
 Warning: Turning off Unsteady Aerodynamics because C_nalpha is 0.  BladeNode = 2, Blade = 3
 Warning: Turning off Unsteady Aerodynamics because C_nalpha is 0.  BladeNode = 3, Blade = 3
 Warning: Turning off Unsteady Aerodynamics because C_nalpha is 0.  BladeNode = 4, Blade = 3

  Running InflowWind (v3.03.00, 26-Jul-2016).
  Opening InflowWind input file:  ./5MW_Baseline/NRELOffshrBsline5MW_InflowWind_12mps.dat

    Reading a 31x31 grid (145 m wide, 17.5 m to 162.5 m above ground) with a characteristic wind
    speed of 12 m/s. This full-field file was generated by TurbSim (v1.06.00, 21-Sep-2012) on
    07-Jan-2014 at 12:50:45.

    Processed 1442 time steps of 20-Hz full-field data (72.05 seconds).

  Running ServoDyn (v1.06.00a-bjj, 26-Jul-2016).

  Running ServoDyn Interface for Bladed Controllers (using Intel Fortran for Linux, 14-Oct-2015).

  Running HydroDyn (v2.05.00, 15-Mar-2016).
  Generating incident wave kinematics and current time history.

  Running SubDyn (v1.03.00, 11-Apr-2016).
    Calculating Internal Modal Eigenvectors
  Timestep: 0 of 60 seconds.

 FAST_Solution0:CalcOutputs_And_SolveForInputs:SolveOption2:SrvD_CalcOutput:Running with torque
 and pitch control of the NREL offshore 5MW baseline wind turbine from DISCON.dll as written by J.
 Jonkman of NREL/NWTC for use in the IEA Annex XXIII OC3 studies.


 FAST_Solution:CalcOutputs_And_SolveForInputs:SolveOption2:SrvD_CalcOutput:BladedInterface option
 was designed for an explicit-loose coupling scheme. Using last calculated values from DLL on all
 subsequent calls until time is advanced. Warning will not be displayed again.

+                                                                                                  
+ Timestep: 1 of 60 seconds. Estimated final completion at 18:39:52.
+                                                                                                  
+ Timestep: 2 of 60 seconds. Estimated final completion at 16:20:34.
+                                                                                                  
+ Timestep: 3 of 60 seconds. Estimated final completion at 16:08:43.
+                                                                                                  
+ Timestep: 4 of 60 seconds. Estimated final completion at 16:08:55.
+                                                                                                  
+ Timestep: 5 of 60 seconds. Estimated final completion at 16:08:56.
+                                                                                                  
+ Timestep: 6 of 60 seconds. Estimated final completion at 16:09:04.
+                                                                                                  
+ Timestep: 7 of 60 seconds. Estimated final completion at 16:08:56.
+                                                                                                  
+ Timestep: 8 of 60 seconds. Estimated final completion at 16:08:60.
+                                                                                                  
+ Timestep: 9 of 60 seconds. Estimated final completion at 16:09:12.
+                                                                                                  
+ Timestep: 10 of 60 seconds. Estimated final completion at 16:09:20.
+                                                                                                  
+ Timestep: 11 of 60 seconds. Estimated final completion at 16:09:11.
+                                                                                                  
+ Timestep: 12 of 60 seconds. Estimated final completion at 16:09:02.
+                                                                                                  
+ Timestep: 13 of 60 seconds. Estimated final completion at 16:09:09.
+                                                                                                  
+ Timestep: 14 of 60 seconds. Estimated final completion at 16:09:10.
+                                                                                                  
+ Timestep: 15 of 60 seconds. Estimated final completion at 16:09:15.
+                                                                                                  
+ Timestep: 16 of 60 seconds. Estimated final completion at 16:09:05.
+                                                                                                  
+ Timestep: 17 of 60 seconds. Estimated final completion at 16:09:36.
+                                                                                                  
+ Timestep: 18 of 60 seconds. Estimated final completion at 16:10:03.
+                                                                                                  
+ Timestep: 19 of 60 seconds. Estimated final completion at 16:10:09.
+                                                                                                  
+ Timestep: 20 of 60 seconds. Estimated final completion at 16:09:23.
+                                                                                                  
+ Timestep: 21 of 60 seconds. Estimated final completion at 16:09:30.
+                                                                                                  
+ Timestep: 22 of 60 seconds. Estimated final completion at 16:09:41.
+                                                                                                  
+ Timestep: 23 of 60 seconds. Estimated final completion at 16:10:59.
+                                                                                                  
+ Timestep: 24 of 60 seconds. Estimated final completion at 16:17:20.
+                                                                                                  
+ Timestep: 25 of 60 seconds. Estimated final completion at 16:12:25.
+                                                                                                  
+ Timestep: 26 of 60 seconds. Estimated final completion at 16:10:10.
+                                                                                                  
+ Timestep: 27 of 60 seconds. Estimated final completion at 16:09:39.
+                                                                                                  
+ Timestep: 28 of 60 seconds. Estimated final completion at 16:09:32.
+                                                                                                  
+ Timestep: 29 of 60 seconds. Estimated final completion at 16:09:56.
+                                                                                                  
+ Timestep: 30 of 60 seconds. Estimated final completion at 16:10:21.
+                                                                                                  
+ Timestep: 31 of 60 seconds. Estimated final completion at 16:10:11.
+                                                                                                  
+ Timestep: 32 of 60 seconds. Estimated final completion at 16:09:58.
+                                                                                                  
+ Timestep: 33 of 60 seconds. Estimated final completion at 16:09:38.
+                                                                                                  
+ Timestep: 34 of 60 seconds. Estimated final completion at 16:09:46.
+                                                                                                  
+ Timestep: 35 of 60 seconds. Estimated final completion at 16:09:23.
+                                                                                                  
+ Timestep: 36 of 60 seconds. Estimated final completion at 16:09:59.
+                                                                                                  
+ Timestep: 37 of 60 seconds. Estimated final completion at 16:14:26.
+                                                                                                  
+ Timestep: 38 of 60 seconds. Estimated final completion at 16:15:03.
+                                                                                                  
+ Timestep: 39 of 60 seconds. Estimated final completion at 16:14:58.
+                                                                                                  
+ Timestep: 40 of 60 seconds. Estimated final completion at 16:15:04.
+                                                                                                  
+ Timestep: 41 of 60 seconds. Estimated final completion at 16:15:05.
+                                                                                                  
+ Timestep: 42 of 60 seconds. Estimated final completion at 16:15:03.
+                                                                                                  
+ Timestep: 43 of 60 seconds. Estimated final completion at 16:15:06.
+                                                                                                  
+ Timestep: 44 of 60 seconds. Estimated final completion at 16:15:00.
+                                                                                                  
+ Timestep: 45 of 60 seconds. Estimated final completion at 16:15:01.
+                                                                                                  
+ Timestep: 46 of 60 seconds. Estimated final completion at 16:15:04.
+                                                                                                  
+ Timestep: 47 of 60 seconds. Estimated final completion at 16:15:06.
+                                                                                                  
+ Timestep: 48 of 60 seconds. Estimated final completion at 16:15:00.
+                                                                                                  
+ Timestep: 49 of 60 seconds. Estimated final completion at 16:15:05.
+                                                                                                  
+ Timestep: 50 of 60 seconds. Estimated final completion at 16:15:06.
+                                                                                                  
+ Timestep: 51 of 60 seconds. Estimated final completion at 16:15:09.
+                                                                                                  
+ Timestep: 52 of 60 seconds. Estimated final completion at 16:15:09.
+                                                                                                  
+ Timestep: 53 of 60 seconds. Estimated final completion at 16:15:16.
+                                                                                                  
+ Timestep: 54 of 60 seconds. Estimated final completion at 16:15:19.
+                                                                                                  
+ Timestep: 55 of 60 seconds. Estimated final completion at 16:15:16.
+                                                                                                  
+ Timestep: 56 of 60 seconds. Estimated final completion at 16:15:13.
+                                                                                                  
+ Timestep: 57 of 60 seconds. Estimated final completion at 16:15:13.
+                                                                                                  
+ Timestep: 58 of 60 seconds. Estimated final completion at 16:15:13.
+                                                                                                  
+ Timestep: 59 of 60 seconds. Estimated final completion at 16:15:13.
+                                                                                                  
+ Timestep: 60 of 60 seconds. Estimated final completion at 16:15:13.
+                                                                                                  

  Total Real Time:       1.0295 hours
  Total CPU Time:        1.0271 hours
  Simulation CPU Time:   0.99459 hours
  Simulated Time:        1.66667E-02 hours
  Time Ratio (Sim/CPU):  1.67574E-02

  OpenFAST terminated normally.

