
 **************************************************************************************************
 OpenFAST (v8.17.01b-dev, 18-Jan-2017)

 Copyright (C) 2017 National Renewable Energy Laboratory

 This program comes with ABSOLUTELY NO WARRANTY. See the "license.txt" file distributed with this
 software for details.
 **************************************************************************************************

  Running OpenFAST (v8.17.01b-dev, 18-Jan-2017), compiled as a 64-bit application using double
  precision
  linked with NWTC Subroutine Library (v2.11.00, 12-Nov-2016)

  Heading of the OpenFAST input file:
    FAST Certification Test #07: AOC 15/50 with many DOFs with free yaw and FF turbulence. Many
    parameters are pure fiction.

  Running ElastoDyn (v1.04.00a-bjj, 26-Jul-2016).

  Running AeroDyn (v15.04.02a, 10-May-2017).

  Running AirfoilInfo (v1.01.01a, 10-May-2017).

  Running BEM (v1.03.00, 29-Oct-2016).

  Running UnsteadyAero (v1.01.00a, 10-May-2017).

  Running InflowWind (v3.03.00, 26-Jul-2016).
  Opening InflowWind input file:  ./AOC/Test07_InflowWind.dat

    Reading a 6x6 grid (18 m wide, 16 m to 34 m above ground) with a characteristic wind speed of
    12 m/s.

    Processed 1430 time steps of 20-Hz full-field data (71.45 seconds).

  Running ServoDyn (v1.06.00a-bjj, 26-Jul-2016).
  Timestep: 0 of 70 seconds.
 Warning: Turning off Unsteady Aerodynamics due to high angle-of-attack. BladeNode = 2, Blade = 1
 Warning: Turning off Unsteady Aerodynamics due to high angle-of-attack. BladeNode = 3, Blade = 1
 Warning: Turning off Unsteady Aerodynamics due to high angle-of-attack. BladeNode = 2, Blade = 2
 Warning: Turning off Unsteady Aerodynamics due to high angle-of-attack. BladeNode = 3, Blade = 2
 Warning: Turning off Unsteady Aerodynamics due to high angle-of-attack. BladeNode = 2, Blade = 3
 Warning: Turning off Unsteady Aerodynamics due to high angle-of-attack. BladeNode = 3, Blade = 3
 Warning: Turning off Unsteady Aerodynamics due to high angle-of-attack. BladeNode = 4, Blade = 1
 Warning: Turning off Unsteady Aerodynamics due to high angle-of-attack. BladeNode = 4, Blade = 3
 Warning: Turning off Unsteady Aerodynamics due to high angle-of-attack. BladeNode = 4, Blade = 2
 Warning: Turning off Unsteady Aerodynamics due to high angle-of-attack. BladeNode = 1, Blade = 2
 Warning: Turning off Unsteady Aerodynamics due to high angle-of-attack. BladeNode = 1, Blade = 1
 Warning: Turning off Unsteady Aerodynamics due to high angle-of-attack. BladeNode = 1, Blade = 3
+                                                                                                  
+ Timestep: 5 of 70 seconds. Estimated final completion at 12:30:45.
+                                                                                                  
+ Timestep: 10 of 70 seconds. Estimated final completion at 12:30:47.
 Warning: Turning off Unsteady Aerodynamics due to high angle-of-attack. BladeNode = 5, Blade = 2
+                                                                                                  
+ Timestep: 15 of 70 seconds. Estimated final completion at 12:30:46.
+                                                                                                  
+ Timestep: 20 of 70 seconds. Estimated final completion at 12:30:46.
+                                                                                                  
+ Timestep: 25 of 70 seconds. Estimated final completion at 12:30:45.
+                                                                                                  
+ Timestep: 30 of 70 seconds. Estimated final completion at 12:30:45.
+                                                                                                  
+ Timestep: 35 of 70 seconds. Estimated final completion at 12:30:45.
+                                                                                                  
+ Timestep: 40 of 70 seconds. Estimated final completion at 12:30:46.
+                                                                                                  
+ Timestep: 45 of 70 seconds. Estimated final completion at 12:30:46.
+                                                                                                  
+ Timestep: 50 of 70 seconds. Estimated final completion at 12:30:46.
+                                                                                                  
+ Timestep: 55 of 70 seconds. Estimated final completion at 12:30:46.
+                                                                                                  
+ Timestep: 60 of 70 seconds. Estimated final completion at 12:30:46.
+                                                                                                  
+ Timestep: 65 of 70 seconds. Estimated final completion at 12:30:46.
+                                                                                                  
+ Timestep: 70 of 70 seconds. Estimated final completion at 12:30:46.
+                                                                                                  

  Total Real Time:       1.2153 minutes
  Total CPU Time:        1.2098 minutes
  Simulation CPU Time:   1.2093 minutes
  Simulated Time:        1.1667 minutes
  Time Ratio (Sim/CPU):  0.96472

  OpenFAST terminated normally.

