
 **************************************************************************************************
 OpenFAST (v8.17.01b-dev, 18-Jan-2017)

 Copyright (C) 2017 National Renewable Energy Laboratory

 This program comes with ABSOLUTELY NO WARRANTY. See the "license.txt" file distributed with this
 software for details.
 **************************************************************************************************

  Running OpenFAST (v8.17.01b-dev, 18-Jan-2017), compiled as a 64-bit application using double
  precision
  linked with NWTC Subroutine Library (v2.11.00, 12-Nov-2016)

  Heading of the OpenFAST input file:
    FAST Certification Test #04: AWT-27CR2 with many DOFs with free yaw and FF turbulence.

  Running ElastoDyn (v1.04.00a-bjj, 26-Jul-2016).

  Running AeroDyn14 (v14.05.01a-bjj, 25-Jul-2016).

  Running InflowWind (v3.03.00, 26-Jul-2016).
  Opening InflowWind input file:  ./AWT27/Test04_InflowWind.dat

    Reading a 6x6 grid (33 m wide, 26.172 m to 59.172 m above ground) with a characteristic wind
    speed of 12 m/s.

    Processed 1455 time steps of 20-Hz full-field data (72.7 seconds).

  Running ServoDyn (v1.06.00a-bjj, 26-Jul-2016).
  Timestep: 0 of 70 seconds.
+                                                                                                  
+ Timestep: 1 of 70 seconds. Estimated final completion at 14:30:17.
+                                                                                                  
+ Timestep: 2 of 70 seconds. Estimated final completion at 14:30:18.
+                                                                                                  
+ Timestep: 3 of 70 seconds. Estimated final completion at 14:30:18.
+                                                                                                  
+ Timestep: 4 of 70 seconds. Estimated final completion at 14:30:18.
+                                                                                                  
+ Timestep: 5 of 70 seconds. Estimated final completion at 14:30:17.
+                                                                                                  
+ Timestep: 6 of 70 seconds. Estimated final completion at 14:30:18.
+                                                                                                  
+ Timestep: 7 of 70 seconds. Estimated final completion at 14:30:18.
+                                                                                                  
+ Timestep: 8 of 70 seconds. Estimated final completion at 14:30:17.
+                                                                                                  
+ Timestep: 9 of 70 seconds. Estimated final completion at 14:30:18.
+                                                                                                  
+ Timestep: 10 of 70 seconds. Estimated final completion at 14:30:18.
+                                                                                                  
+ Timestep: 11 of 70 seconds. Estimated final completion at 14:30:16.
+                                                                                                  
+ Timestep: 12 of 70 seconds. Estimated final completion at 14:30:15.
+                                                                                                  
+ Timestep: 13 of 70 seconds. Estimated final completion at 14:30:15.
+                                                                                                  
+ Timestep: 14 of 70 seconds. Estimated final completion at 14:30:15.
+                                                                                                  
+ Timestep: 15 of 70 seconds. Estimated final completion at 14:30:15.
+                                                                                                  
+ Timestep: 16 of 70 seconds. Estimated final completion at 14:30:15.
+                                                                                                  
+ Timestep: 17 of 70 seconds. Estimated final completion at 14:30:15.
+                                                                                                  
+ Timestep: 18 of 70 seconds. Estimated final completion at 14:30:15.
+                                                                                                  
+ Timestep: 19 of 70 seconds. Estimated final completion at 14:30:15.
+                                                                                                  
+ Timestep: 20 of 70 seconds. Estimated final completion at 14:30:15.
+                                                                                                  
+ Timestep: 21 of 70 seconds. Estimated final completion at 14:30:15.
+                                                                                                  
+ Timestep: 22 of 70 seconds. Estimated final completion at 14:30:15.
+                                                                                                  
+ Timestep: 23 of 70 seconds. Estimated final completion at 14:30:15.
+                                                                                                  
+ Timestep: 24 of 70 seconds. Estimated final completion at 14:30:15.
+                                                                                                  
+ Timestep: 25 of 70 seconds. Estimated final completion at 14:30:15.
+                                                                                                  
+ Timestep: 26 of 70 seconds. Estimated final completion at 14:30:15.
+                                                                                                  
+ Timestep: 27 of 70 seconds. Estimated final completion at 14:30:15.
+                                                                                                  
+ Timestep: 28 of 70 seconds. Estimated final completion at 14:30:15.
+                                                                                                  
+ Timestep: 29 of 70 seconds. Estimated final completion at 14:30:15.
+                                                                                                  
+ Timestep: 30 of 70 seconds. Estimated final completion at 14:30:15.
+                                                                                                  
+ Timestep: 31 of 70 seconds. Estimated final completion at 14:30:15.
+                                                                                                  
+ Timestep: 32 of 70 seconds. Estimated final completion at 14:30:15.
+                                                                                                  
+ Timestep: 33 of 70 seconds. Estimated final completion at 14:30:15.
+                                                                                                  
+ Timestep: 34 of 70 seconds. Estimated final completion at 14:30:15.
+                                                                                                  
+ Timestep: 35 of 70 seconds. Estimated final completion at 14:30:15.
+                                                                                                  
+ Timestep: 36 of 70 seconds. Estimated final completion at 14:30:15.
+                                                                                                  
+ Timestep: 37 of 70 seconds. Estimated final completion at 14:30:15.
+                                                                                                  
+ Timestep: 38 of 70 seconds. Estimated final completion at 14:30:15.
+                                                                                                  
+ Timestep: 39 of 70 seconds. Estimated final completion at 14:30:15.
+                                                                                                  
+ Timestep: 40 of 70 seconds. Estimated final completion at 14:30:15.
+                                                                                                  
+ Timestep: 41 of 70 seconds. Estimated final completion at 14:30:15.
+                                                                                                  
+ Timestep: 42 of 70 seconds. Estimated final completion at 14:30:15.
+                                                                                                  
+ Timestep: 43 of 70 seconds. Estimated final completion at 14:30:15.
+                                                                                                  
+ Timestep: 44 of 70 seconds. Estimated final completion at 14:30:15.
+                                                                                                  
+ Timestep: 45 of 70 seconds. Estimated final completion at 14:30:15.
+                                                                                                  
+ Timestep: 46 of 70 seconds. Estimated final completion at 14:30:15.
+                                                                                                  
+ Timestep: 47 of 70 seconds. Estimated final completion at 14:30:15.
+                                                                                                  
+ Timestep: 48 of 70 seconds. Estimated final completion at 14:30:15.
+                                                                                                  
+ Timestep: 49 of 70 seconds. Estimated final completion at 14:30:15.
+                                                                                                  
+ Timestep: 50 of 70 seconds. Estimated final completion at 14:30:15.
+                                                                                                  
+ Timestep: 51 of 70 seconds. Estimated final completion at 14:30:15.
+                                                                                                  
+ Timestep: 52 of 70 seconds. Estimated final completion at 14:30:15.
+                                                                                                  
+ Timestep: 53 of 70 seconds. Estimated final completion at 14:30:15.
+                                                                                                  
+ Timestep: 54 of 70 seconds. Estimated final completion at 14:30:15.
+                                                                                                  
+ Timestep: 55 of 70 seconds. Estimated final completion at 14:30:15.
+                                                                                                  
+ Timestep: 56 of 70 seconds. Estimated final completion at 14:30:15.
+                                                                                                  
+ Timestep: 57 of 70 seconds. Estimated final completion at 14:30:15.
+                                                                                                  
+ Timestep: 58 of 70 seconds. Estimated final completion at 14:30:15.
+                                                                                                  
+ Timestep: 59 of 70 seconds. Estimated final completion at 14:30:15.
+                                                                                                  
+ Timestep: 60 of 70 seconds. Estimated final completion at 14:30:15.
+                                                                                                  
+ Timestep: 61 of 70 seconds. Estimated final completion at 14:30:15.
+                                                                                                  
+ Timestep: 62 of 70 seconds. Estimated final completion at 14:30:15.
+                                                                                                  
+ Timestep: 63 of 70 seconds. Estimated final completion at 14:30:15.
+                                                                                                  
+ Timestep: 64 of 70 seconds. Estimated final completion at 14:30:15.
+                                                                                                  
+ Timestep: 65 of 70 seconds. Estimated final completion at 14:30:15.
+                                                                                                  
+ Timestep: 66 of 70 seconds. Estimated final completion at 14:30:15.
+                                                                                                  
+ Timestep: 67 of 70 seconds. Estimated final completion at 14:30:15.
+                                                                                                  
+ Timestep: 68 of 70 seconds. Estimated final completion at 14:30:15.
+                                                                                                  
+ Timestep: 69 of 70 seconds. Estimated final completion at 14:30:15.
+                                                                                                  
+ Timestep: 70 of 70 seconds. Estimated final completion at 14:30:15.
+                                                                                                  

  Total Real Time:       1.0811 minutes
  Total CPU Time:        1.0784 minutes
  Simulation CPU Time:   1.0779 minutes
  Simulated Time:        1.1667 minutes
  Time Ratio (Sim/CPU):  1.0824

  OpenFAST terminated normally.

