
 **************************************************************************************************
 OpenFAST (v8.17.01b-dev, 18-Jan-2017)

 Copyright (C) 2017 National Renewable Energy Laboratory

 This program comes with ABSOLUTELY NO WARRANTY. See the "license.txt" file distributed with this
 software for details.
 **************************************************************************************************

  Running OpenFAST (v8.17.01b-dev, 18-Jan-2017), compiled as a 64-bit application using double
  precision
  linked with NWTC Subroutine Library (v2.11.00, 12-Nov-2016)

  Heading of the OpenFAST input file:
    FAST Certification Test #05: AWT-27CR2 with many DOFs with startup and shutdown and FF
    turbulence.

  Running ElastoDyn (v1.04.00a-bjj, 26-Jul-2016).

  Running AeroDyn (v15.04.02a, 10-May-2017).

  Running AirfoilInfo (v1.01.01a, 10-May-2017).

  Running BEM (v1.03.00, 29-Oct-2016).

  Running InflowWind (v3.03.00, 26-Jul-2016).
  Opening InflowWind input file:  ./AWT27/Test05_InflowWind.dat
    Processed 3 records of uniform wind data from './AWT27/Wind/NoShr_12.wnd'

  Running ServoDyn (v1.06.00a-bjj, 26-Jul-2016).
  Timestep: 0 of 30 seconds.
+                                                                                                  
+ Timestep: 1 of 30 seconds. Estimated final completion at 12:29:23.
+                                                                                                  
+ Timestep: 2 of 30 seconds. Estimated final completion at 12:29:22.
+                                                                                                  
+ Timestep: 3 of 30 seconds. Estimated final completion at 12:29:22.
+                                                                                                  
+ Timestep: 4 of 30 seconds. Estimated final completion at 12:29:22.
+                                                                                                  
+ Timestep: 5 of 30 seconds. Estimated final completion at 12:29:22.
+                                                                                                  
+ Timestep: 6 of 30 seconds. Estimated final completion at 12:29:21.
+                                                                                                  
+ Timestep: 7 of 30 seconds. Estimated final completion at 12:29:21.
+                                                                                                  
+ Timestep: 8 of 30 seconds. Estimated final completion at 12:29:21.
+                                                                                                  
+ Timestep: 9 of 30 seconds. Estimated final completion at 12:29:22.
+                                                                                                  
+ Timestep: 10 of 30 seconds. Estimated final completion at 12:29:22.
+                                                                                                  
+ Timestep: 11 of 30 seconds. Estimated final completion at 12:29:22.
+                                                                                                  
+ Timestep: 12 of 30 seconds. Estimated final completion at 12:29:22.
+                                                                                                  
+ Timestep: 13 of 30 seconds. Estimated final completion at 12:29:22.
+                                                                                                  
+ Timestep: 14 of 30 seconds. Estimated final completion at 12:29:22.
+                                                                                                  
+ Timestep: 15 of 30 seconds. Estimated final completion at 12:29:22.
+                                                                                                  
+ Timestep: 16 of 30 seconds. Estimated final completion at 12:29:22.
+                                                                                                  
+ Timestep: 17 of 30 seconds. Estimated final completion at 12:29:22.
+                                                                                                  
+ Timestep: 18 of 30 seconds. Estimated final completion at 12:29:22.
+                                                                                                  
+ Timestep: 19 of 30 seconds. Estimated final completion at 12:29:22.
+                                                                                                  
+ Timestep: 20 of 30 seconds. Estimated final completion at 12:29:22.
+                                                                                                  
+ Timestep: 21 of 30 seconds. Estimated final completion at 12:29:22.
+                                                                                                  
+ Timestep: 22 of 30 seconds. Estimated final completion at 12:29:22.
+                                                                                                  
+ Timestep: 23 of 30 seconds. Estimated final completion at 12:29:22.
+                                                                                                  
+ Timestep: 24 of 30 seconds. Estimated final completion at 12:29:22.
+                                                                                                  
+ Timestep: 25 of 30 seconds. Estimated final completion at 12:29:22.
+                                                                                                  
+ Timestep: 26 of 30 seconds. Estimated final completion at 12:29:22.
+                                                                                                  
+ Timestep: 27 of 30 seconds. Estimated final completion at 12:29:22.
+                                                                                                  
+ Timestep: 28 of 30 seconds. Estimated final completion at 12:29:22.
+                                                                                                  
+ Timestep: 29 of 30 seconds. Estimated final completion at 12:29:22.
+                                                                                                  
+ Timestep: 30 of 30 seconds. Estimated final completion at 12:29:22.
+                                                                                                  

  Total Real Time:       25.019 seconds
  Total CPU Time:        24.947 seconds
  Simulation CPU Time:   24.921 seconds
  Simulated Time:        30.004 seconds
  Time Ratio (Sim/CPU):  1.204

  OpenFAST terminated normally.

