
This summary information was generated by ElastoDyn on 08-Aug-2018 at 14:57:41.


Turbine features:

            Upwind, three-bladed rotor with rigid hub.
            The model has 6 of 24 DOFs active (enabled) at start-up.
 Enabled    Platform horizontal surge translation DOF 
 Enabled    Platform horizontal sway translation DOF 
 Enabled    Platform vertical heave translation DOF 
 Enabled    Platform roll tilt rotation DOF 
 Enabled    Platform pitch tilt rotation DOF 
 Enabled    Platform yaw rotation DOF 
 Disabled   1st tower fore-aft bending mode DOF 
 Disabled   1st tower side-to-side bending mode DOF 
 Disabled   2nd tower fore-aft bending mode DOF 
 Disabled   2nd tower side-to-side bending mode DOF 
 Disabled   Nacelle yaw DOF 
 Disabled   Rotor-furl DOF 
 Disabled   Variable speed generator DOF 
 Disabled   Drivetrain rotational-flexibility DOF 
 Disabled   Tail-furl DOF 
 Disabled   1st flapwise bending-mode DOF of blade 1 
 Disabled   1st edgewise bending-mode DOF of blade 1 
 Disabled   2nd flapwise bending-mode DOF of blade 1 
 Disabled   
 Disabled   
 Disabled   
 Disabled   
 Disabled   
 Disabled   


Time steps:

    Structural            (s)        0.00150000


Some calculated parameters:

    Hub-Height            (m)             0.000
    Flexible Tower Length (m)             0.000
    Flexible Blade Length (m)               N/A


Rotor mass properties:

    Rotor Mass            (kg)            0.000
    Rotor Inertia         (kg-m^2)        0.000
                                        Blade 1
                                        -------
    Mass                  (kg)              N/A
    Second Mass Moment    (kg-m^2)          N/A
    First Mass Moment     (kg-m)            N/A
    Center of Mass        (m)               N/A


Additional mass properties:

    Tower-top Mass        (kg)            0.000
    Tower Mass            (kg)            0.000
    Platform Mass         (kg)            1.000
    Mass Incl. Platform   (kg)            1.000


Interpolated tower properties:

Node  TwFract   HNodes  DHNodes  TMassDen    FAStiff    SSStiff
 (-)      (-)      (m)      (m)    (kg/m)     (Nm^2)     (Nm^2)
   1    0.500    0.000    0.000     0.004  2.910E+11  2.910E+11


Requested Outputs:


 Col   Parameter  Units     
 ---   ---------- ----------
   0   Time       (s)       
