
This summary file was generated by HydroDyn  on 11-Jan-2021 at 21:06:20.

WAMIT Model
-----------
  Displaced volume (m^3)                 :     1.217960E+04
  X-offset of the center of buoyancy (m) :     0.000000E+00
  Y-offset of the center of buoyancy (m) :     0.000000E+00


  Buoyancy loads from members modelled with WAMIT, summed about ( 0.0, 0.0, 0.0 )
                                BuoyFxi               BuoyFyi               BuoyFzi               BuoyMxi               BuoyMyi               BuoyMzi 
                                  (N)                   (N)                   (N)                  (N-m)                 (N-m)                 (N-m)  
  External:                 0.000000E+00          0.000000E+00          1.224271E+08          0.000000E+00          0.000000E+00          0.000000E+00



Volume Calculations(m^3)
------------------------
  Structure Volume     :    0.00000E+00
  Submerged Volume     :    0.00000E+00
  Marine Growth Volume :    0.00000E+00
  Ballasted Volume     :    0.00000E+00
              NOTE: Structure, Submerged and Marine Growth volumes are based on members not modelled with WAMIT
                      Ballasted volume is computed from all members which are marked as filled in the HydroDyn input file, regardless of PropPot flag



Buoyancy loads summed about ( 0.0, 0.0, 0.0 )
---------------------------------------------
                                BuoyFxi               BuoyFyi               BuoyFzi               BuoyMxi               BuoyMyi               BuoyMzi 
                                  (N)                   (N)                   (N)                  (N-m)                 (N-m)                 (N-m)  
 External:                  0.000000E+00          0.000000E+00          0.000000E+00          0.000000E+00          0.000000E+00          0.000000E+00
 Internal:                  0.000000E+00          0.000000E+00          0.000000E+00          0.000000E+00          0.000000E+00          0.000000E+00
 Total   :                  0.000000E+00          0.000000E+00          0.000000E+00          0.000000E+00          0.000000E+00          0.000000E+00
              NOTE: External buoyancy is based on members not modelled with WAMIT
                      Internal buoyancy is computed from all members which are marked as filled in the HydroDyn input file, regardless of PropPot flag
                    Total buoyancy does not include WAMIT-modelled buoyancy contribution



Weight loads about ( 0.0, 0.0, 0.0 )
------------------------------------
                                 MGFxi                 MGFyi                 MGFzi                 MGMxi                 MGMyi                 MGMzi  
                                  (N)                   (N)                   (N)                  (N-m)                 (N-m)                 (N-m)  
 Marine Growth:             0.000000E+00          0.000000E+00          0.000000E+00          0.000000E+00          0.000000E+00          0.000000E+00



Nodes


   i    JointIndx   JointOvrlp  InpMbrIndx     Nxi         Nyi         Nzi      InpMbrDist       R         dRdZ         t          tMG        MGDens      PropPot   FilledFlag   FillDens   FillFSLoc       Cd          Ca          Cp         AxCa        AxCp        JAxCd       JAxCa       JAxCp    NConn  Connection List
  (-)      (-)         (-)         (-)         (m)         (m)         (m)          (-)         (m)         (-)        (m)         (m)       (kg/m^3)      (-)         (-)       (kg/m^3)       (-)         (-)         (-)         (-)         (-)         (-)         (-)         (-)         (-)      (-)                  
     1           1           0           1      0.0000      0.0000    -47.8900      0.0000   9.000E+00   0.000E+00   1.000E-03   0.000E+00   0.000E+00           T           F   0.000E+00   0.000E+00   6.000E-01   0.000E+00   1.000E+00   1.000E+00   1.000E+00   0.000E+00   0.000E+00   1.000E+00      1     1
     2           2           0           1      0.0000      0.0000      0.0000      1.0000   9.000E+00   0.000E+00   1.000E-03   0.000E+00   0.000E+00           T           F   0.000E+00   0.000E+00   6.000E-01   0.000E+00   1.000E+00   1.000E+00   1.000E+00   0.000E+00   0.000E+00   1.000E+00      1   100
     3          -1           0           1      0.0000      0.0000    -47.4111      0.0100   9.000E+00   0.000E+00   1.000E-03   0.000E+00   0.000E+00           T           F   0.000E+00   0.000E+00   6.000E-01   0.000E+00   1.000E+00   1.000E+00   1.000E+00   0.000E+00   0.000E+00   0.000E+00      2     1     2
     4          -1           0           1      0.0000      0.0000    -46.9322      0.0200   9.000E+00   0.000E+00   1.000E-03   0.000E+00   0.000E+00           T           F   0.000E+00   0.000E+00   6.000E-01   0.000E+00   1.000E+00   1.000E+00   1.000E+00   0.000E+00   0.000E+00   0.000E+00      2     2     3
     5          -1           0           1      0.0000      0.0000    -46.4533      0.0300   9.000E+00   0.000E+00   1.000E-03   0.000E+00   0.000E+00           T           F   0.000E+00   0.000E+00   6.000E-01   0.000E+00   1.000E+00   1.000E+00   1.000E+00   0.000E+00   0.000E+00   0.000E+00      2     3     4
     6          -1           0           1      0.0000      0.0000    -45.9744      0.0400   9.000E+00   0.000E+00   1.000E-03   0.000E+00   0.000E+00           T           F   0.000E+00   0.000E+00   6.000E-01   0.000E+00   1.000E+00   1.000E+00   1.000E+00   0.000E+00   0.000E+00   0.000E+00      2     4     5
     7          -1           0           1      0.0000      0.0000    -45.4955      0.0500   9.000E+00   0.000E+00   1.000E-03   0.000E+00   0.000E+00           T           F   0.000E+00   0.000E+00   6.000E-01   0.000E+00   1.000E+00   1.000E+00   1.000E+00   0.000E+00   0.000E+00   0.000E+00      2     5     6
     8          -1           0           1      0.0000      0.0000    -45.0166      0.0600   9.000E+00   0.000E+00   1.000E-03   0.000E+00   0.000E+00           T           F   0.000E+00   0.000E+00   6.000E-01   0.000E+00   1.000E+00   1.000E+00   1.000E+00   0.000E+00   0.000E+00   0.000E+00      2     6     7
     9          -1           0           1      0.0000      0.0000    -44.5377      0.0700   9.000E+00   0.000E+00   1.000E-03   0.000E+00   0.000E+00           T           F   0.000E+00   0.000E+00   6.000E-01   0.000E+00   1.000E+00   1.000E+00   1.000E+00   0.000E+00   0.000E+00   0.000E+00      2     7     8
    10          -1           0           1      0.0000      0.0000    -44.0588      0.0800   9.000E+00   0.000E+00   1.000E-03   0.000E+00   0.000E+00           T           F   0.000E+00   0.000E+00   6.000E-01   0.000E+00   1.000E+00   1.000E+00   1.000E+00   0.000E+00   0.000E+00   0.000E+00      2     8     9
    11          -1           0           1      0.0000      0.0000    -43.5799      0.0900   9.000E+00   0.000E+00   1.000E-03   0.000E+00   0.000E+00           T           F   0.000E+00   0.000E+00   6.000E-01   0.000E+00   1.000E+00   1.000E+00   1.000E+00   0.000E+00   0.000E+00   0.000E+00      2     9    10
    12          -1           0           1      0.0000      0.0000    -43.1010      0.1000   9.000E+00   0.000E+00   1.000E-03   0.000E+00   0.000E+00           T           F   0.000E+00   0.000E+00   6.000E-01   0.000E+00   1.000E+00   1.000E+00   1.000E+00   0.000E+00   0.000E+00   0.000E+00      2    10    11
    13          -1           0           1      0.0000      0.0000    -42.6221      0.1100   9.000E+00   0.000E+00   1.000E-03   0.000E+00   0.000E+00           T           F   0.000E+00   0.000E+00   6.000E-01   0.000E+00   1.000E+00   1.000E+00   1.000E+00   0.000E+00   0.000E+00   0.000E+00      2    11    12
    14          -1           0           1      0.0000      0.0000    -42.1432      0.1200   9.000E+00   0.000E+00   1.000E-03   0.000E+00   0.000E+00           T           F   0.000E+00   0.000E+00   6.000E-01   0.000E+00   1.000E+00   1.000E+00   1.000E+00   0.000E+00   0.000E+00   0.000E+00      2    12    13
    15          -1           0           1      0.0000      0.0000    -41.6643      0.1300   9.000E+00   0.000E+00   1.000E-03   0.000E+00   0.000E+00           T           F   0.000E+00   0.000E+00   6.000E-01   0.000E+00   1.000E+00   1.000E+00   1.000E+00   0.000E+00   0.000E+00   0.000E+00      2    13    14
    16          -1           0           1      0.0000      0.0000    -41.1854      0.1400   9.000E+00   0.000E+00   1.000E-03   0.000E+00   0.000E+00           T           F   0.000E+00   0.000E+00   6.000E-01   0.000E+00   1.000E+00   1.000E+00   1.000E+00   0.000E+00   0.000E+00   0.000E+00      2    14    15
    17          -1           0           1      0.0000      0.0000    -40.7065      0.1500   9.000E+00   0.000E+00   1.000E-03   0.000E+00   0.000E+00           T           F   0.000E+00   0.000E+00   6.000E-01   0.000E+00   1.000E+00   1.000E+00   1.000E+00   0.000E+00   0.000E+00   0.000E+00      2    15    16
    18          -1           0           1      0.0000      0.0000    -40.2276      0.1600   9.000E+00   0.000E+00   1.000E-03   0.000E+00   0.000E+00           T           F   0.000E+00   0.000E+00   6.000E-01   0.000E+00   1.000E+00   1.000E+00   1.000E+00   0.000E+00   0.000E+00   0.000E+00      2    16    17
    19          -1           0           1      0.0000      0.0000    -39.7487      0.1700   9.000E+00   0.000E+00   1.000E-03   0.000E+00   0.000E+00           T           F   0.000E+00   0.000E+00   6.000E-01   0.000E+00   1.000E+00   1.000E+00   1.000E+00   0.000E+00   0.000E+00   0.000E+00      2    17    18
    20          -1           0           1      0.0000      0.0000    -39.2698      0.1800   9.000E+00   0.000E+00   1.000E-03   0.000E+00   0.000E+00           T           F   0.000E+00   0.000E+00   6.000E-01   0.000E+00   1.000E+00   1.000E+00   1.000E+00   0.000E+00   0.000E+00   0.000E+00      2    18    19
    21          -1           0           1      0.0000      0.0000    -38.7909      0.1900   9.000E+00   0.000E+00   1.000E-03   0.000E+00   0.000E+00           T           F   0.000E+00   0.000E+00   6.000E-01   0.000E+00   1.000E+00   1.000E+00   1.000E+00   0.000E+00   0.000E+00   0.000E+00      2    19    20
    22          -1           0           1      0.0000      0.0000    -38.3120      0.2000   9.000E+00   0.000E+00   1.000E-03   0.000E+00   0.000E+00           T           F   0.000E+00   0.000E+00   6.000E-01   0.000E+00   1.000E+00   1.000E+00   1.000E+00   0.000E+00   0.000E+00   0.000E+00      2    20    21
    23          -1           0           1      0.0000      0.0000    -37.8331      0.2100   9.000E+00   0.000E+00   1.000E-03   0.000E+00   0.000E+00           T           F   0.000E+00   0.000E+00   6.000E-01   0.000E+00   1.000E+00   1.000E+00   1.000E+00   0.000E+00   0.000E+00   0.000E+00      2    21    22
    24          -1           0           1      0.0000      0.0000    -37.3542      0.2200   9.000E+00   0.000E+00   1.000E-03   0.000E+00   0.000E+00           T           F   0.000E+00   0.000E+00   6.000E-01   0.000E+00   1.000E+00   1.000E+00   1.000E+00   0.000E+00   0.000E+00   0.000E+00      2    22    23
    25          -1           0           1      0.0000      0.0000    -36.8753      0.2300   9.000E+00   0.000E+00   1.000E-03   0.000E+00   0.000E+00           T           F   0.000E+00   0.000E+00   6.000E-01   0.000E+00   1.000E+00   1.000E+00   1.000E+00   0.000E+00   0.000E+00   0.000E+00      2    23    24
    26          -1           0           1      0.0000      0.0000    -36.3964      0.2400   9.000E+00   0.000E+00   1.000E-03   0.000E+00   0.000E+00           T           F   0.000E+00   0.000E+00   6.000E-01   0.000E+00   1.000E+00   1.000E+00   1.000E+00   0.000E+00   0.000E+00   0.000E+00      2    24    25
    27          -1           0           1      0.0000      0.0000    -35.9175      0.2500   9.000E+00   0.000E+00   1.000E-03   0.000E+00   0.000E+00           T           F   0.000E+00   0.000E+00   6.000E-01   0.000E+00   1.000E+00   1.000E+00   1.000E+00   0.000E+00   0.000E+00   0.000E+00      2    25    26
    28          -1           0           1      0.0000      0.0000    -35.4386      0.2600   9.000E+00   0.000E+00   1.000E-03   0.000E+00   0.000E+00           T           F   0.000E+00   0.000E+00   6.000E-01   0.000E+00   1.000E+00   1.000E+00   1.000E+00   0.000E+00   0.000E+00   0.000E+00      2    26    27
    29          -1           0           1      0.0000      0.0000    -34.9597      0.2700   9.000E+00   0.000E+00   1.000E-03   0.000E+00   0.000E+00           T           F   0.000E+00   0.000E+00   6.000E-01   0.000E+00   1.000E+00   1.000E+00   1.000E+00   0.000E+00   0.000E+00   0.000E+00      2    27    28
    30          -1           0           1      0.0000      0.0000    -34.4808      0.2800   9.000E+00   0.000E+00   1.000E-03   0.000E+00   0.000E+00           T           F   0.000E+00   0.000E+00   6.000E-01   0.000E+00   1.000E+00   1.000E+00   1.000E+00   0.000E+00   0.000E+00   0.000E+00      2    28    29
    31          -1           0           1      0.0000      0.0000    -34.0019      0.2900   9.000E+00   0.000E+00   1.000E-03   0.000E+00   0.000E+00           T           F   0.000E+00   0.000E+00   6.000E-01   0.000E+00   1.000E+00   1.000E+00   1.000E+00   0.000E+00   0.000E+00   0.000E+00      2    29    30
    32          -1           0           1      0.0000      0.0000    -33.5230      0.3000   9.000E+00   0.000E+00   1.000E-03   0.000E+00   0.000E+00           T           F   0.000E+00   0.000E+00   6.000E-01   0.000E+00   1.000E+00   1.000E+00   1.000E+00   0.000E+00   0.000E+00   0.000E+00      2    30    31
    33          -1           0           1      0.0000      0.0000    -33.0441      0.3100   9.000E+00   0.000E+00   1.000E-03   0.000E+00   0.000E+00           T           F   0.000E+00   0.000E+00   6.000E-01   0.000E+00   1.000E+00   1.000E+00   1.000E+00   0.000E+00   0.000E+00   0.000E+00      2    31    32
    34          -1           0           1      0.0000      0.0000    -32.5652      0.3200   9.000E+00   0.000E+00   1.000E-03   0.000E+00   0.000E+00           T           F   0.000E+00   0.000E+00   6.000E-01   0.000E+00   1.000E+00   1.000E+00   1.000E+00   0.000E+00   0.000E+00   0.000E+00      2    32    33
    35          -1           0           1      0.0000      0.0000    -32.0863      0.3300   9.000E+00   0.000E+00   1.000E-03   0.000E+00   0.000E+00           T           F   0.000E+00   0.000E+00   6.000E-01   0.000E+00   1.000E+00   1.000E+00   1.000E+00   0.000E+00   0.000E+00   0.000E+00      2    33    34
    36          -1           0           1      0.0000      0.0000    -31.6074      0.3400   9.000E+00   0.000E+00   1.000E-03   0.000E+00   0.000E+00           T           F   0.000E+00   0.000E+00   6.000E-01   0.000E+00   1.000E+00   1.000E+00   1.000E+00   0.000E+00   0.000E+00   0.000E+00      2    34    35
    37          -1           0           1      0.0000      0.0000    -31.1285      0.3500   9.000E+00   0.000E+00   1.000E-03   0.000E+00   0.000E+00           T           F   0.000E+00   0.000E+00   6.000E-01   0.000E+00   1.000E+00   1.000E+00   1.000E+00   0.000E+00   0.000E+00   0.000E+00      2    35    36
    38          -1           0           1      0.0000      0.0000    -30.6496      0.3600   9.000E+00   0.000E+00   1.000E-03   0.000E+00   0.000E+00           T           F   0.000E+00   0.000E+00   6.000E-01   0.000E+00   1.000E+00   1.000E+00   1.000E+00   0.000E+00   0.000E+00   0.000E+00      2    36    37
    39          -1           0           1      0.0000      0.0000    -30.1707      0.3700   9.000E+00   0.000E+00   1.000E-03   0.000E+00   0.000E+00           T           F   0.000E+00   0.000E+00   6.000E-01   0.000E+00   1.000E+00   1.000E+00   1.000E+00   0.000E+00   0.000E+00   0.000E+00      2    37    38
    40          -1           0           1      0.0000      0.0000    -29.6918      0.3800   9.000E+00   0.000E+00   1.000E-03   0.000E+00   0.000E+00           T           F   0.000E+00   0.000E+00   6.000E-01   0.000E+00   1.000E+00   1.000E+00   1.000E+00   0.000E+00   0.000E+00   0.000E+00      2    38    39
    41          -1           0           1      0.0000      0.0000    -29.2129      0.3900   9.000E+00   0.000E+00   1.000E-03   0.000E+00   0.000E+00           T           F   0.000E+00   0.000E+00   6.000E-01   0.000E+00   1.000E+00   1.000E+00   1.000E+00   0.000E+00   0.000E+00   0.000E+00      2    39    40
    42          -1           0           1      0.0000      0.0000    -28.7340      0.4000   9.000E+00   0.000E+00   1.000E-03   0.000E+00   0.000E+00           T           F   0.000E+00   0.000E+00   6.000E-01   0.000E+00   1.000E+00   1.000E+00   1.000E+00   0.000E+00   0.000E+00   0.000E+00      2    40    41
    43          -1           0           1      0.0000      0.0000    -28.2551      0.4100   9.000E+00   0.000E+00   1.000E-03   0.000E+00   0.000E+00           T           F   0.000E+00   0.000E+00   6.000E-01   0.000E+00   1.000E+00   1.000E+00   1.000E+00   0.000E+00   0.000E+00   0.000E+00      2    41    42
    44          -1           0           1      0.0000      0.0000    -27.7762      0.4200   9.000E+00   0.000E+00   1.000E-03   0.000E+00   0.000E+00           T           F   0.000E+00   0.000E+00   6.000E-01   0.000E+00   1.000E+00   1.000E+00   1.000E+00   0.000E+00   0.000E+00   0.000E+00      2    42    43
    45          -1           0           1      0.0000      0.0000    -27.2973      0.4300   9.000E+00   0.000E+00   1.000E-03   0.000E+00   0.000E+00           T           F   0.000E+00   0.000E+00   6.000E-01   0.000E+00   1.000E+00   1.000E+00   1.000E+00   0.000E+00   0.000E+00   0.000E+00      2    43    44
    46          -1           0           1      0.0000      0.0000    -26.8184      0.4400   9.000E+00   0.000E+00   1.000E-03   0.000E+00   0.000E+00           T           F   0.000E+00   0.000E+00   6.000E-01   0.000E+00   1.000E+00   1.000E+00   1.000E+00   0.000E+00   0.000E+00   0.000E+00      2    44    45
    47          -1           0           1      0.0000      0.0000    -26.3395      0.4500   9.000E+00   0.000E+00   1.000E-03   0.000E+00   0.000E+00           T           F   0.000E+00   0.000E+00   6.000E-01   0.000E+00   1.000E+00   1.000E+00   1.000E+00   0.000E+00   0.000E+00   0.000E+00      2    45    46
    48          -1           0           1      0.0000      0.0000    -25.8606      0.4600   9.000E+00   0.000E+00   1.000E-03   0.000E+00   0.000E+00           T           F   0.000E+00   0.000E+00   6.000E-01   0.000E+00   1.000E+00   1.000E+00   1.000E+00   0.000E+00   0.000E+00   0.000E+00      2    46    47
    49          -1           0           1      0.0000      0.0000    -25.3817      0.4700   9.000E+00   0.000E+00   1.000E-03   0.000E+00   0.000E+00           T           F   0.000E+00   0.000E+00   6.000E-01   0.000E+00   1.000E+00   1.000E+00   1.000E+00   0.000E+00   0.000E+00   0.000E+00      2    47    48
    50          -1           0           1      0.0000      0.0000    -24.9028      0.4800   9.000E+00   0.000E+00   1.000E-03   0.000E+00   0.000E+00           T           F   0.000E+00   0.000E+00   6.000E-01   0.000E+00   1.000E+00   1.000E+00   1.000E+00   0.000E+00   0.000E+00   0.000E+00      2    48    49
    51          -1           0           1      0.0000      0.0000    -24.4239      0.4900   9.000E+00   0.000E+00   1.000E-03   0.000E+00   0.000E+00           T           F   0.000E+00   0.000E+00   6.000E-01   0.000E+00   1.000E+00   1.000E+00   1.000E+00   0.000E+00   0.000E+00   0.000E+00      2    49    50
    52          -1           0           1      0.0000      0.0000    -23.9450      0.5000   9.000E+00   0.000E+00   1.000E-03   0.000E+00   0.000E+00           T           F   0.000E+00   0.000E+00   6.000E-01   0.000E+00   1.000E+00   1.000E+00   1.000E+00   0.000E+00   0.000E+00   0.000E+00      2    50    51
    53          -1           0           1      0.0000      0.0000    -23.4661      0.5100   9.000E+00   0.000E+00   1.000E-03   0.000E+00   0.000E+00           T           F   0.000E+00   0.000E+00   6.000E-01   0.000E+00   1.000E+00   1.000E+00   1.000E+00   0.000E+00   0.000E+00   0.000E+00      2    51    52
    54          -1           0           1      0.0000      0.0000    -22.9872      0.5200   9.000E+00   0.000E+00   1.000E-03   0.000E+00   0.000E+00           T           F   0.000E+00   0.000E+00   6.000E-01   0.000E+00   1.000E+00   1.000E+00   1.000E+00   0.000E+00   0.000E+00   0.000E+00      2    52    53
    55          -1           0           1      0.0000      0.0000    -22.5083      0.5300   9.000E+00   0.000E+00   1.000E-03   0.000E+00   0.000E+00           T           F   0.000E+00   0.000E+00   6.000E-01   0.000E+00   1.000E+00   1.000E+00   1.000E+00   0.000E+00   0.000E+00   0.000E+00      2    53    54
    56          -1           0           1      0.0000      0.0000    -22.0294      0.5400   9.000E+00   0.000E+00   1.000E-03   0.000E+00   0.000E+00           T           F   0.000E+00   0.000E+00   6.000E-01   0.000E+00   1.000E+00   1.000E+00   1.000E+00   0.000E+00   0.000E+00   0.000E+00      2    54    55
    57          -1           0           1      0.0000      0.0000    -21.5505      0.5500   9.000E+00   0.000E+00   1.000E-03   0.000E+00   0.000E+00           T           F   0.000E+00   0.000E+00   6.000E-01   0.000E+00   1.000E+00   1.000E+00   1.000E+00   0.000E+00   0.000E+00   0.000E+00      2    55    56
    58          -1           0           1      0.0000      0.0000    -21.0716      0.5600   9.000E+00   0.000E+00   1.000E-03   0.000E+00   0.000E+00           T           F   0.000E+00   0.000E+00   6.000E-01   0.000E+00   1.000E+00   1.000E+00   1.000E+00   0.000E+00   0.000E+00   0.000E+00      2    56    57
    59          -1           0           1      0.0000      0.0000    -20.5927      0.5700   9.000E+00   0.000E+00   1.000E-03   0.000E+00   0.000E+00           T           F   0.000E+00   0.000E+00   6.000E-01   0.000E+00   1.000E+00   1.000E+00   1.000E+00   0.000E+00   0.000E+00   0.000E+00      2    57    58
    60          -1           0           1      0.0000      0.0000    -20.1138      0.5800   9.000E+00   0.000E+00   1.000E-03   0.000E+00   0.000E+00           T           F   0.000E+00   0.000E+00   6.000E-01   0.000E+00   1.000E+00   1.000E+00   1.000E+00   0.000E+00   0.000E+00   0.000E+00      2    58    59
    61          -1           0           1      0.0000      0.0000    -19.6349      0.5900   9.000E+00   0.000E+00   1.000E-03   0.000E+00   0.000E+00           T           F   0.000E+00   0.000E+00   6.000E-01   0.000E+00   1.000E+00   1.000E+00   1.000E+00   0.000E+00   0.000E+00   0.000E+00      2    59    60
    62          -1           0           1      0.0000      0.0000    -19.1560      0.6000   9.000E+00   0.000E+00   1.000E-03   0.000E+00   0.000E+00           T           F   0.000E+00   0.000E+00   6.000E-01   0.000E+00   1.000E+00   1.000E+00   1.000E+00   0.000E+00   0.000E+00   0.000E+00      2    60    61
    63          -1           0           1      0.0000      0.0000    -18.6771      0.6100   9.000E+00   0.000E+00   1.000E-03   0.000E+00   0.000E+00           T           F   0.000E+00   0.000E+00   6.000E-01   0.000E+00   1.000E+00   1.000E+00   1.000E+00   0.000E+00   0.000E+00   0.000E+00      2    61    62
    64          -1           0           1      0.0000      0.0000    -18.1982      0.6200   9.000E+00   0.000E+00   1.000E-03   0.000E+00   0.000E+00           T           F   0.000E+00   0.000E+00   6.000E-01   0.000E+00   1.000E+00   1.000E+00   1.000E+00   0.000E+00   0.000E+00   0.000E+00      2    62    63
    65          -1           0           1      0.0000      0.0000    -17.7193      0.6300   9.000E+00   0.000E+00   1.000E-03   0.000E+00   0.000E+00           T           F   0.000E+00   0.000E+00   6.000E-01   0.000E+00   1.000E+00   1.000E+00   1.000E+00   0.000E+00   0.000E+00   0.000E+00      2    63    64
    66          -1           0           1      0.0000      0.0000    -17.2404      0.6400   9.000E+00   0.000E+00   1.000E-03   0.000E+00   0.000E+00           T           F   0.000E+00   0.000E+00   6.000E-01   0.000E+00   1.000E+00   1.000E+00   1.000E+00   0.000E+00   0.000E+00   0.000E+00      2    64    65
    67          -1           0           1      0.0000      0.0000    -16.7615      0.6500   9.000E+00   0.000E+00   1.000E-03   0.000E+00   0.000E+00           T           F   0.000E+00   0.000E+00   6.000E-01   0.000E+00   1.000E+00   1.000E+00   1.000E+00   0.000E+00   0.000E+00   0.000E+00      2    65    66
    68          -1           0           1      0.0000      0.0000    -16.2826      0.6600   9.000E+00   0.000E+00   1.000E-03   0.000E+00   0.000E+00           T           F   0.000E+00   0.000E+00   6.000E-01   0.000E+00   1.000E+00   1.000E+00   1.000E+00   0.000E+00   0.000E+00   0.000E+00      2    66    67
    69          -1           0           1      0.0000      0.0000    -15.8037      0.6700   9.000E+00   0.000E+00   1.000E-03   0.000E+00   0.000E+00           T           F   0.000E+00   0.000E+00   6.000E-01   0.000E+00   1.000E+00   1.000E+00   1.000E+00   0.000E+00   0.000E+00   0.000E+00      2    67    68
    70          -1           0           1      0.0000      0.0000    -15.3248      0.6800   9.000E+00   0.000E+00   1.000E-03   0.000E+00   0.000E+00           T           F   0.000E+00   0.000E+00   6.000E-01   0.000E+00   1.000E+00   1.000E+00   1.000E+00   0.000E+00   0.000E+00   0.000E+00      2    68    69
    71          -1           0           1      0.0000      0.0000    -14.8459      0.6900   9.000E+00   0.000E+00   1.000E-03   0.000E+00   0.000E+00           T           F   0.000E+00   0.000E+00   6.000E-01   0.000E+00   1.000E+00   1.000E+00   1.000E+00   0.000E+00   0.000E+00   0.000E+00      2    69    70
    72          -1           0           1      0.0000      0.0000    -14.3670      0.7000   9.000E+00   0.000E+00   1.000E-03   0.000E+00   0.000E+00           T           F   0.000E+00   0.000E+00   6.000E-01   0.000E+00   1.000E+00   1.000E+00   1.000E+00   0.000E+00   0.000E+00   0.000E+00      2    70    71
    73          -1           0           1      0.0000      0.0000    -13.8881      0.7100   9.000E+00   0.000E+00   1.000E-03   0.000E+00   0.000E+00           T           F   0.000E+00   0.000E+00   6.000E-01   0.000E+00   1.000E+00   1.000E+00   1.000E+00   0.000E+00   0.000E+00   0.000E+00      2    71    72
    74          -1           0           1      0.0000      0.0000    -13.4092      0.7200   9.000E+00   0.000E+00   1.000E-03   0.000E+00   0.000E+00           T           F   0.000E+00   0.000E+00   6.000E-01   0.000E+00   1.000E+00   1.000E+00   1.000E+00   0.000E+00   0.000E+00   0.000E+00      2    72    73
    75          -1           0           1      0.0000      0.0000    -12.9303      0.7300   9.000E+00   0.000E+00   1.000E-03   0.000E+00   0.000E+00           T           F   0.000E+00   0.000E+00   6.000E-01   0.000E+00   1.000E+00   1.000E+00   1.000E+00   0.000E+00   0.000E+00   0.000E+00      2    73    74
    76          -1           0           1      0.0000      0.0000    -12.4514      0.7400   9.000E+00   0.000E+00   1.000E-03   0.000E+00   0.000E+00           T           F   0.000E+00   0.000E+00   6.000E-01   0.000E+00   1.000E+00   1.000E+00   1.000E+00   0.000E+00   0.000E+00   0.000E+00      2    74    75
    77          -1           0           1      0.0000      0.0000    -11.9725      0.7500   9.000E+00   0.000E+00   1.000E-03   0.000E+00   0.000E+00           T           F   0.000E+00   0.000E+00   6.000E-01   0.000E+00   1.000E+00   1.000E+00   1.000E+00   0.000E+00   0.000E+00   0.000E+00      2    75    76
    78          -1           0           1      0.0000      0.0000    -11.4936      0.7600   9.000E+00   0.000E+00   1.000E-03   0.000E+00   0.000E+00           T           F   0.000E+00   0.000E+00   6.000E-01   0.000E+00   1.000E+00   1.000E+00   1.000E+00   0.000E+00   0.000E+00   0.000E+00      2    76    77
    79          -1           0           1      0.0000      0.0000    -11.0147      0.7700   9.000E+00   0.000E+00   1.000E-03   0.000E+00   0.000E+00           T           F   0.000E+00   0.000E+00   6.000E-01   0.000E+00   1.000E+00   1.000E+00   1.000E+00   0.000E+00   0.000E+00   0.000E+00      2    77    78
    80          -1           0           1      0.0000      0.0000    -10.5358      0.7800   9.000E+00   0.000E+00   1.000E-03   0.000E+00   0.000E+00           T           F   0.000E+00   0.000E+00   6.000E-01   0.000E+00   1.000E+00   1.000E+00   1.000E+00   0.000E+00   0.000E+00   0.000E+00      2    78    79
    81          -1           0           1      0.0000      0.0000    -10.0569      0.7900   9.000E+00   0.000E+00   1.000E-03   0.000E+00   0.000E+00           T           F   0.000E+00   0.000E+00   6.000E-01   0.000E+00   1.000E+00   1.000E+00   1.000E+00   0.000E+00   0.000E+00   0.000E+00      2    79    80
    82          -1           0           1      0.0000      0.0000     -9.5780      0.8000   9.000E+00   0.000E+00   1.000E-03   0.000E+00   0.000E+00           T           F   0.000E+00   0.000E+00   6.000E-01   0.000E+00   1.000E+00   1.000E+00   1.000E+00   0.000E+00   0.000E+00   0.000E+00      2    80    81
    83          -1           0           1      0.0000      0.0000     -9.0991      0.8100   9.000E+00   0.000E+00   1.000E-03   0.000E+00   0.000E+00           T           F   0.000E+00   0.000E+00   6.000E-01   0.000E+00   1.000E+00   1.000E+00   1.000E+00   0.000E+00   0.000E+00   0.000E+00      2    81    82
    84          -1           0           1      0.0000      0.0000     -8.6202      0.8200   9.000E+00   0.000E+00   1.000E-03   0.000E+00   0.000E+00           T           F   0.000E+00   0.000E+00   6.000E-01   0.000E+00   1.000E+00   1.000E+00   1.000E+00   0.000E+00   0.000E+00   0.000E+00      2    82    83
    85          -1           0           1      0.0000      0.0000     -8.1413      0.8300   9.000E+00   0.000E+00   1.000E-03   0.000E+00   0.000E+00           T           F   0.000E+00   0.000E+00   6.000E-01   0.000E+00   1.000E+00   1.000E+00   1.000E+00   0.000E+00   0.000E+00   0.000E+00      2    83    84
    86          -1           0           1      0.0000      0.0000     -7.6624      0.8400   9.000E+00   0.000E+00   1.000E-03   0.000E+00   0.000E+00           T           F   0.000E+00   0.000E+00   6.000E-01   0.000E+00   1.000E+00   1.000E+00   1.000E+00   0.000E+00   0.000E+00   0.000E+00      2    84    85
    87          -1           0           1      0.0000      0.0000     -7.1835      0.8500   9.000E+00   0.000E+00   1.000E-03   0.000E+00   0.000E+00           T           F   0.000E+00   0.000E+00   6.000E-01   0.000E+00   1.000E+00   1.000E+00   1.000E+00   0.000E+00   0.000E+00   0.000E+00      2    85    86
    88          -1           0           1      0.0000      0.0000     -6.7046      0.8600   9.000E+00   0.000E+00   1.000E-03   0.000E+00   0.000E+00           T           F   0.000E+00   0.000E+00   6.000E-01   0.000E+00   1.000E+00   1.000E+00   1.000E+00   0.000E+00   0.000E+00   0.000E+00      2    86    87
    89          -1           0           1      0.0000      0.0000     -6.2257      0.8700   9.000E+00   0.000E+00   1.000E-03   0.000E+00   0.000E+00           T           F   0.000E+00   0.000E+00   6.000E-01   0.000E+00   1.000E+00   1.000E+00   1.000E+00   0.000E+00   0.000E+00   0.000E+00      2    87    88
    90          -1           0           1      0.0000      0.0000     -5.7468      0.8800   9.000E+00   0.000E+00   1.000E-03   0.000E+00   0.000E+00           T           F   0.000E+00   0.000E+00   6.000E-01   0.000E+00   1.000E+00   1.000E+00   1.000E+00   0.000E+00   0.000E+00   0.000E+00      2    88    89
    91          -1           0           1      0.0000      0.0000     -5.2679      0.8900   9.000E+00   0.000E+00   1.000E-03   0.000E+00   0.000E+00           T           F   0.000E+00   0.000E+00   6.000E-01   0.000E+00   1.000E+00   1.000E+00   1.000E+00   0.000E+00   0.000E+00   0.000E+00      2    89    90
    92          -1           0           1      0.0000      0.0000     -4.7890      0.9000   9.000E+00   0.000E+00   1.000E-03   0.000E+00   0.000E+00           T           F   0.000E+00   0.000E+00   6.000E-01   0.000E+00   1.000E+00   1.000E+00   1.000E+00   0.000E+00   0.000E+00   0.000E+00      2    90    91
    93          -1           0           1      0.0000      0.0000     -4.3101      0.9100   9.000E+00   0.000E+00   1.000E-03   0.000E+00   0.000E+00           T           F   0.000E+00   0.000E+00   6.000E-01   0.000E+00   1.000E+00   1.000E+00   1.000E+00   0.000E+00   0.000E+00   0.000E+00      2    91    92
    94          -1           0           1      0.0000      0.0000     -3.8312      0.9200   9.000E+00   0.000E+00   1.000E-03   0.000E+00   0.000E+00           T           F   0.000E+00   0.000E+00   6.000E-01   0.000E+00   1.000E+00   1.000E+00   1.000E+00   0.000E+00   0.000E+00   0.000E+00      2    92    93
    95          -1           0           1      0.0000      0.0000     -3.3523      0.9300   9.000E+00   0.000E+00   1.000E-03   0.000E+00   0.000E+00           T           F   0.000E+00   0.000E+00   6.000E-01   0.000E+00   1.000E+00   1.000E+00   1.000E+00   0.000E+00   0.000E+00   0.000E+00      2    93    94
    96          -1           0           1      0.0000      0.0000     -2.8734      0.9400   9.000E+00   0.000E+00   1.000E-03   0.000E+00   0.000E+00           T           F   0.000E+00   0.000E+00   6.000E-01   0.000E+00   1.000E+00   1.000E+00   1.000E+00   0.000E+00   0.000E+00   0.000E+00      2    94    95
    97          -1           0           1      0.0000      0.0000     -2.3945      0.9500   9.000E+00   0.000E+00   1.000E-03   0.000E+00   0.000E+00           T           F   0.000E+00   0.000E+00   6.000E-01   0.000E+00   1.000E+00   1.000E+00   1.000E+00   0.000E+00   0.000E+00   0.000E+00      2    95    96
    98          -1           0           1      0.0000      0.0000     -1.9156      0.9600   9.000E+00   0.000E+00   1.000E-03   0.000E+00   0.000E+00           T           F   0.000E+00   0.000E+00   6.000E-01   0.000E+00   1.000E+00   1.000E+00   1.000E+00   0.000E+00   0.000E+00   0.000E+00      2    96    97
    99          -1           0           1      0.0000      0.0000     -1.4367      0.9700   9.000E+00   0.000E+00   1.000E-03   0.000E+00   0.000E+00           T           F   0.000E+00   0.000E+00   6.000E-01   0.000E+00   1.000E+00   1.000E+00   1.000E+00   0.000E+00   0.000E+00   0.000E+00      2    97    98
   100          -1           0           1      0.0000      0.0000     -0.9578      0.9800   9.000E+00   0.000E+00   1.000E-03   0.000E+00   0.000E+00           T           F   0.000E+00   0.000E+00   6.000E-01   0.000E+00   1.000E+00   1.000E+00   1.000E+00   0.000E+00   0.000E+00   0.000E+00      2    98    99
   101          -1           0           1      0.0000      0.0000     -0.4789      0.9900   9.000E+00   0.000E+00   1.000E-03   0.000E+00   0.000E+00           T           F   0.000E+00   0.000E+00   6.000E-01   0.000E+00   1.000E+00   1.000E+00   1.000E+00   0.000E+00   0.000E+00   0.000E+00      2    99   100



Elements


   i    node1  node2      Length       Volume       MGVolume          R1          tMG1           t1             R2          tMG2           t2          MGDens1       MGDens2        PropPot     FilledFlag   FillDensity    FillFSLoc     FillMass         Cd1            Ca1          Cp1          AxCa1         AxCp1        JAxCd1        JAxCa1        JAxCp1          Cd2           Ca2           Cp2          AxCa2         AxCp2        JAxCd2        JAxCa2        JAxCp2   
  (-)    (-)    (-)        (m)         (m^3)         (m^3)           (m)           (m)           (m)           (m)           (m)           (m)        (kg/m^3)      (kg/m^3)         (-)           (-)        (kg/m^3)         (-)          (kg)           (-)            (-)          (-)           (-)           (-)           (-)           (-)           (-)           (-)            (-)          (-)           (-)           (-)           (-)           (-)           (-)    
     1      1      3   4.78900E-01   0.00000E+00   0.00000E+00   9.00000E+00   0.00000E+00   1.00000E-03   9.00000E+00   0.00000E+00   1.00000E-03   0.00000E+00   0.00000E+00             T             F   0.00000E+00   0.00000E+00   0.00000E+00   6.00000E-01   0.00000E+00   1.00000E+00   1.00000E+00   1.00000E+00   0.00000E+00   0.00000E+00   1.00000E+00   6.00000E-01   0.00000E+00   1.00000E+00   1.00000E+00   1.00000E+00   0.00000E+00   0.00000E+00   0.00000E+00
     2      3      4   4.78900E-01   0.00000E+00   0.00000E+00   9.00000E+00   0.00000E+00   1.00000E-03   9.00000E+00   0.00000E+00   1.00000E-03   0.00000E+00   0.00000E+00             T             F   0.00000E+00   0.00000E+00   0.00000E+00   6.00000E-01   0.00000E+00   1.00000E+00   1.00000E+00   1.00000E+00   0.00000E+00   0.00000E+00   0.00000E+00   6.00000E-01   0.00000E+00   1.00000E+00   1.00000E+00   1.00000E+00   0.00000E+00   0.00000E+00   0.00000E+00
     3      4      5   4.78900E-01   0.00000E+00   0.00000E+00   9.00000E+00   0.00000E+00   1.00000E-03   9.00000E+00   0.00000E+00   1.00000E-03   0.00000E+00   0.00000E+00             T             F   0.00000E+00   0.00000E+00   0.00000E+00   6.00000E-01   0.00000E+00   1.00000E+00   1.00000E+00   1.00000E+00   0.00000E+00   0.00000E+00   0.00000E+00   6.00000E-01   0.00000E+00   1.00000E+00   1.00000E+00   1.00000E+00   0.00000E+00   0.00000E+00   0.00000E+00
     4      5      6   4.78900E-01   0.00000E+00   0.00000E+00   9.00000E+00   0.00000E+00   1.00000E-03   9.00000E+00   0.00000E+00   1.00000E-03   0.00000E+00   0.00000E+00             T             F   0.00000E+00   0.00000E+00   0.00000E+00   6.00000E-01   0.00000E+00   1.00000E+00   1.00000E+00   1.00000E+00   0.00000E+00   0.00000E+00   0.00000E+00   6.00000E-01   0.00000E+00   1.00000E+00   1.00000E+00   1.00000E+00   0.00000E+00   0.00000E+00   0.00000E+00
     5      6      7   4.78900E-01   0.00000E+00   0.00000E+00   9.00000E+00   0.00000E+00   1.00000E-03   9.00000E+00   0.00000E+00   1.00000E-03   0.00000E+00   0.00000E+00             T             F   0.00000E+00   0.00000E+00   0.00000E+00   6.00000E-01   0.00000E+00   1.00000E+00   1.00000E+00   1.00000E+00   0.00000E+00   0.00000E+00   0.00000E+00   6.00000E-01   0.00000E+00   1.00000E+00   1.00000E+00   1.00000E+00   0.00000E+00   0.00000E+00   0.00000E+00
     6      7      8   4.78900E-01   0.00000E+00   0.00000E+00   9.00000E+00   0.00000E+00   1.00000E-03   9.00000E+00   0.00000E+00   1.00000E-03   0.00000E+00   0.00000E+00             T             F   0.00000E+00   0.00000E+00   0.00000E+00   6.00000E-01   0.00000E+00   1.00000E+00   1.00000E+00   1.00000E+00   0.00000E+00   0.00000E+00   0.00000E+00   6.00000E-01   0.00000E+00   1.00000E+00   1.00000E+00   1.00000E+00   0.00000E+00   0.00000E+00   0.00000E+00
     7      8      9   4.78900E-01   0.00000E+00   0.00000E+00   9.00000E+00   0.00000E+00   1.00000E-03   9.00000E+00   0.00000E+00   1.00000E-03   0.00000E+00   0.00000E+00             T             F   0.00000E+00   0.00000E+00   0.00000E+00   6.00000E-01   0.00000E+00   1.00000E+00   1.00000E+00   1.00000E+00   0.00000E+00   0.00000E+00   0.00000E+00   6.00000E-01   0.00000E+00   1.00000E+00   1.00000E+00   1.00000E+00   0.00000E+00   0.00000E+00   0.00000E+00
     8      9     10   4.78900E-01   0.00000E+00   0.00000E+00   9.00000E+00   0.00000E+00   1.00000E-03   9.00000E+00   0.00000E+00   1.00000E-03   0.00000E+00   0.00000E+00             T             F   0.00000E+00   0.00000E+00   0.00000E+00   6.00000E-01   0.00000E+00   1.00000E+00   1.00000E+00   1.00000E+00   0.00000E+00   0.00000E+00   0.00000E+00   6.00000E-01   0.00000E+00   1.00000E+00   1.00000E+00   1.00000E+00   0.00000E+00   0.00000E+00   0.00000E+00
     9     10     11   4.78900E-01   0.00000E+00   0.00000E+00   9.00000E+00   0.00000E+00   1.00000E-03   9.00000E+00   0.00000E+00   1.00000E-03   0.00000E+00   0.00000E+00             T             F   0.00000E+00   0.00000E+00   0.00000E+00   6.00000E-01   0.00000E+00   1.00000E+00   1.00000E+00   1.00000E+00   0.00000E+00   0.00000E+00   0.00000E+00   6.00000E-01   0.00000E+00   1.00000E+00   1.00000E+00   1.00000E+00   0.00000E+00   0.00000E+00   0.00000E+00
    10     11     12   4.78900E-01   0.00000E+00   0.00000E+00   9.00000E+00   0.00000E+00   1.00000E-03   9.00000E+00   0.00000E+00   1.00000E-03   0.00000E+00   0.00000E+00             T             F   0.00000E+00   0.00000E+00   0.00000E+00   6.00000E-01   0.00000E+00   1.00000E+00   1.00000E+00   1.00000E+00   0.00000E+00   0.00000E+00   0.00000E+00   6.00000E-01   0.00000E+00   1.00000E+00   1.00000E+00   1.00000E+00   0.00000E+00   0.00000E+00   0.00000E+00
    11     12     13   4.78900E-01   0.00000E+00   0.00000E+00   9.00000E+00   0.00000E+00   1.00000E-03   9.00000E+00   0.00000E+00   1.00000E-03   0.00000E+00   0.00000E+00             T             F   0.00000E+00   0.00000E+00   0.00000E+00   6.00000E-01   0.00000E+00   1.00000E+00   1.00000E+00   1.00000E+00   0.00000E+00   0.00000E+00   0.00000E+00   6.00000E-01   0.00000E+00   1.00000E+00   1.00000E+00   1.00000E+00   0.00000E+00   0.00000E+00   0.00000E+00
    12     13     14   4.78900E-01   0.00000E+00   0.00000E+00   9.00000E+00   0.00000E+00   1.00000E-03   9.00000E+00   0.00000E+00   1.00000E-03   0.00000E+00   0.00000E+00             T             F   0.00000E+00   0.00000E+00   0.00000E+00   6.00000E-01   0.00000E+00   1.00000E+00   1.00000E+00   1.00000E+00   0.00000E+00   0.00000E+00   0.00000E+00   6.00000E-01   0.00000E+00   1.00000E+00   1.00000E+00   1.00000E+00   0.00000E+00   0.00000E+00   0.00000E+00
    13     14     15   4.78900E-01   0.00000E+00   0.00000E+00   9.00000E+00   0.00000E+00   1.00000E-03   9.00000E+00   0.00000E+00   1.00000E-03   0.00000E+00   0.00000E+00             T             F   0.00000E+00   0.00000E+00   0.00000E+00   6.00000E-01   0.00000E+00   1.00000E+00   1.00000E+00   1.00000E+00   0.00000E+00   0.00000E+00   0.00000E+00   6.00000E-01   0.00000E+00   1.00000E+00   1.00000E+00   1.00000E+00   0.00000E+00   0.00000E+00   0.00000E+00
    14     15     16   4.78900E-01   0.00000E+00   0.00000E+00   9.00000E+00   0.00000E+00   1.00000E-03   9.00000E+00   0.00000E+00   1.00000E-03   0.00000E+00   0.00000E+00             T             F   0.00000E+00   0.00000E+00   0.00000E+00   6.00000E-01   0.00000E+00   1.00000E+00   1.00000E+00   1.00000E+00   0.00000E+00   0.00000E+00   0.00000E+00   6.00000E-01   0.00000E+00   1.00000E+00   1.00000E+00   1.00000E+00   0.00000E+00   0.00000E+00   0.00000E+00
    15     16     17   4.78900E-01   0.00000E+00   0.00000E+00   9.00000E+00   0.00000E+00   1.00000E-03   9.00000E+00   0.00000E+00   1.00000E-03   0.00000E+00   0.00000E+00             T             F   0.00000E+00   0.00000E+00   0.00000E+00   6.00000E-01   0.00000E+00   1.00000E+00   1.00000E+00   1.00000E+00   0.00000E+00   0.00000E+00   0.00000E+00   6.00000E-01   0.00000E+00   1.00000E+00   1.00000E+00   1.00000E+00   0.00000E+00   0.00000E+00   0.00000E+00
    16     17     18   4.78900E-01   0.00000E+00   0.00000E+00   9.00000E+00   0.00000E+00   1.00000E-03   9.00000E+00   0.00000E+00   1.00000E-03   0.00000E+00   0.00000E+00             T             F   0.00000E+00   0.00000E+00   0.00000E+00   6.00000E-01   0.00000E+00   1.00000E+00   1.00000E+00   1.00000E+00   0.00000E+00   0.00000E+00   0.00000E+00   6.00000E-01   0.00000E+00   1.00000E+00   1.00000E+00   1.00000E+00   0.00000E+00   0.00000E+00   0.00000E+00
    17     18     19   4.78900E-01   0.00000E+00   0.00000E+00   9.00000E+00   0.00000E+00   1.00000E-03   9.00000E+00   0.00000E+00   1.00000E-03   0.00000E+00   0.00000E+00             T             F   0.00000E+00   0.00000E+00   0.00000E+00   6.00000E-01   0.00000E+00   1.00000E+00   1.00000E+00   1.00000E+00   0.00000E+00   0.00000E+00   0.00000E+00   6.00000E-01   0.00000E+00   1.00000E+00   1.00000E+00   1.00000E+00   0.00000E+00   0.00000E+00   0.00000E+00
    18     19     20   4.78900E-01   0.00000E+00   0.00000E+00   9.00000E+00   0.00000E+00   1.00000E-03   9.00000E+00   0.00000E+00   1.00000E-03   0.00000E+00   0.00000E+00             T             F   0.00000E+00   0.00000E+00   0.00000E+00   6.00000E-01   0.00000E+00   1.00000E+00   1.00000E+00   1.00000E+00   0.00000E+00   0.00000E+00   0.00000E+00   6.00000E-01   0.00000E+00   1.00000E+00   1.00000E+00   1.00000E+00   0.00000E+00   0.00000E+00   0.00000E+00
    19     20     21   4.78900E-01   0.00000E+00   0.00000E+00   9.00000E+00   0.00000E+00   1.00000E-03   9.00000E+00   0.00000E+00   1.00000E-03   0.00000E+00   0.00000E+00             T             F   0.00000E+00   0.00000E+00   0.00000E+00   6.00000E-01   0.00000E+00   1.00000E+00   1.00000E+00   1.00000E+00   0.00000E+00   0.00000E+00   0.00000E+00   6.00000E-01   0.00000E+00   1.00000E+00   1.00000E+00   1.00000E+00   0.00000E+00   0.00000E+00   0.00000E+00
    20     21     22   4.78900E-01   0.00000E+00   0.00000E+00   9.00000E+00   0.00000E+00   1.00000E-03   9.00000E+00   0.00000E+00   1.00000E-03   0.00000E+00   0.00000E+00             T             F   0.00000E+00   0.00000E+00   0.00000E+00   6.00000E-01   0.00000E+00   1.00000E+00   1.00000E+00   1.00000E+00   0.00000E+00   0.00000E+00   0.00000E+00   6.00000E-01   0.00000E+00   1.00000E+00   1.00000E+00   1.00000E+00   0.00000E+00   0.00000E+00   0.00000E+00
    21     22     23   4.78900E-01   0.00000E+00   0.00000E+00   9.00000E+00   0.00000E+00   1.00000E-03   9.00000E+00   0.00000E+00   1.00000E-03   0.00000E+00   0.00000E+00             T             F   0.00000E+00   0.00000E+00   0.00000E+00   6.00000E-01   0.00000E+00   1.00000E+00   1.00000E+00   1.00000E+00   0.00000E+00   0.00000E+00   0.00000E+00   6.00000E-01   0.00000E+00   1.00000E+00   1.00000E+00   1.00000E+00   0.00000E+00   0.00000E+00   0.00000E+00
    22     23     24   4.78900E-01   0.00000E+00   0.00000E+00   9.00000E+00   0.00000E+00   1.00000E-03   9.00000E+00   0.00000E+00   1.00000E-03   0.00000E+00   0.00000E+00             T             F   0.00000E+00   0.00000E+00   0.00000E+00   6.00000E-01   0.00000E+00   1.00000E+00   1.00000E+00   1.00000E+00   0.00000E+00   0.00000E+00   0.00000E+00   6.00000E-01   0.00000E+00   1.00000E+00   1.00000E+00   1.00000E+00   0.00000E+00   0.00000E+00   0.00000E+00
    23     24     25   4.78900E-01   0.00000E+00   0.00000E+00   9.00000E+00   0.00000E+00   1.00000E-03   9.00000E+00   0.00000E+00   1.00000E-03   0.00000E+00   0.00000E+00             T             F   0.00000E+00   0.00000E+00   0.00000E+00   6.00000E-01   0.00000E+00   1.00000E+00   1.00000E+00   1.00000E+00   0.00000E+00   0.00000E+00   0.00000E+00   6.00000E-01   0.00000E+00   1.00000E+00   1.00000E+00   1.00000E+00   0.00000E+00   0.00000E+00   0.00000E+00
    24     25     26   4.78900E-01   0.00000E+00   0.00000E+00   9.00000E+00   0.00000E+00   1.00000E-03   9.00000E+00   0.00000E+00   1.00000E-03   0.00000E+00   0.00000E+00             T             F   0.00000E+00   0.00000E+00   0.00000E+00   6.00000E-01   0.00000E+00   1.00000E+00   1.00000E+00   1.00000E+00   0.00000E+00   0.00000E+00   0.00000E+00   6.00000E-01   0.00000E+00   1.00000E+00   1.00000E+00   1.00000E+00   0.00000E+00   0.00000E+00   0.00000E+00
    25     26     27   4.78900E-01   0.00000E+00   0.00000E+00   9.00000E+00   0.00000E+00   1.00000E-03   9.00000E+00   0.00000E+00   1.00000E-03   0.00000E+00   0.00000E+00             T             F   0.00000E+00   0.00000E+00   0.00000E+00   6.00000E-01   0.00000E+00   1.00000E+00   1.00000E+00   1.00000E+00   0.00000E+00   0.00000E+00   0.00000E+00   6.00000E-01   0.00000E+00   1.00000E+00   1.00000E+00   1.00000E+00   0.00000E+00   0.00000E+00   0.00000E+00
    26     27     28   4.78900E-01   0.00000E+00   0.00000E+00   9.00000E+00   0.00000E+00   1.00000E-03   9.00000E+00   0.00000E+00   1.00000E-03   0.00000E+00   0.00000E+00             T             F   0.00000E+00   0.00000E+00   0.00000E+00   6.00000E-01   0.00000E+00   1.00000E+00   1.00000E+00   1.00000E+00   0.00000E+00   0.00000E+00   0.00000E+00   6.00000E-01   0.00000E+00   1.00000E+00   1.00000E+00   1.00000E+00   0.00000E+00   0.00000E+00   0.00000E+00
    27     28     29   4.78900E-01   0.00000E+00   0.00000E+00   9.00000E+00   0.00000E+00   1.00000E-03   9.00000E+00   0.00000E+00   1.00000E-03   0.00000E+00   0.00000E+00             T             F   0.00000E+00   0.00000E+00   0.00000E+00   6.00000E-01   0.00000E+00   1.00000E+00   1.00000E+00   1.00000E+00   0.00000E+00   0.00000E+00   0.00000E+00   6.00000E-01   0.00000E+00   1.00000E+00   1.00000E+00   1.00000E+00   0.00000E+00   0.00000E+00   0.00000E+00
    28     29     30   4.78900E-01   0.00000E+00   0.00000E+00   9.00000E+00   0.00000E+00   1.00000E-03   9.00000E+00   0.00000E+00   1.00000E-03   0.00000E+00   0.00000E+00             T             F   0.00000E+00   0.00000E+00   0.00000E+00   6.00000E-01   0.00000E+00   1.00000E+00   1.00000E+00   1.00000E+00   0.00000E+00   0.00000E+00   0.00000E+00   6.00000E-01   0.00000E+00   1.00000E+00   1.00000E+00   1.00000E+00   0.00000E+00   0.00000E+00   0.00000E+00
    29     30     31   4.78900E-01   0.00000E+00   0.00000E+00   9.00000E+00   0.00000E+00   1.00000E-03   9.00000E+00   0.00000E+00   1.00000E-03   0.00000E+00   0.00000E+00             T             F   0.00000E+00   0.00000E+00   0.00000E+00   6.00000E-01   0.00000E+00   1.00000E+00   1.00000E+00   1.00000E+00   0.00000E+00   0.00000E+00   0.00000E+00   6.00000E-01   0.00000E+00   1.00000E+00   1.00000E+00   1.00000E+00   0.00000E+00   0.00000E+00   0.00000E+00
    30     31     32   4.78900E-01   0.00000E+00   0.00000E+00   9.00000E+00   0.00000E+00   1.00000E-03   9.00000E+00   0.00000E+00   1.00000E-03   0.00000E+00   0.00000E+00             T             F   0.00000E+00   0.00000E+00   0.00000E+00   6.00000E-01   0.00000E+00   1.00000E+00   1.00000E+00   1.00000E+00   0.00000E+00   0.00000E+00   0.00000E+00   6.00000E-01   0.00000E+00   1.00000E+00   1.00000E+00   1.00000E+00   0.00000E+00   0.00000E+00   0.00000E+00
    31     32     33   4.78900E-01   0.00000E+00   0.00000E+00   9.00000E+00   0.00000E+00   1.00000E-03   9.00000E+00   0.00000E+00   1.00000E-03   0.00000E+00   0.00000E+00             T             F   0.00000E+00   0.00000E+00   0.00000E+00   6.00000E-01   0.00000E+00   1.00000E+00   1.00000E+00   1.00000E+00   0.00000E+00   0.00000E+00   0.00000E+00   6.00000E-01   0.00000E+00   1.00000E+00   1.00000E+00   1.00000E+00   0.00000E+00   0.00000E+00   0.00000E+00
    32     33     34   4.78900E-01   0.00000E+00   0.00000E+00   9.00000E+00   0.00000E+00   1.00000E-03   9.00000E+00   0.00000E+00   1.00000E-03   0.00000E+00   0.00000E+00             T             F   0.00000E+00   0.00000E+00   0.00000E+00   6.00000E-01   0.00000E+00   1.00000E+00   1.00000E+00   1.00000E+00   0.00000E+00   0.00000E+00   0.00000E+00   6.00000E-01   0.00000E+00   1.00000E+00   1.00000E+00   1.00000E+00   0.00000E+00   0.00000E+00   0.00000E+00
    33     34     35   4.78900E-01   0.00000E+00   0.00000E+00   9.00000E+00   0.00000E+00   1.00000E-03   9.00000E+00   0.00000E+00   1.00000E-03   0.00000E+00   0.00000E+00             T             F   0.00000E+00   0.00000E+00   0.00000E+00   6.00000E-01   0.00000E+00   1.00000E+00   1.00000E+00   1.00000E+00   0.00000E+00   0.00000E+00   0.00000E+00   6.00000E-01   0.00000E+00   1.00000E+00   1.00000E+00   1.00000E+00   0.00000E+00   0.00000E+00   0.00000E+00
    34     35     36   4.78900E-01   0.00000E+00   0.00000E+00   9.00000E+00   0.00000E+00   1.00000E-03   9.00000E+00   0.00000E+00   1.00000E-03   0.00000E+00   0.00000E+00             T             F   0.00000E+00   0.00000E+00   0.00000E+00   6.00000E-01   0.00000E+00   1.00000E+00   1.00000E+00   1.00000E+00   0.00000E+00   0.00000E+00   0.00000E+00   6.00000E-01   0.00000E+00   1.00000E+00   1.00000E+00   1.00000E+00   0.00000E+00   0.00000E+00   0.00000E+00
    35     36     37   4.78900E-01   0.00000E+00   0.00000E+00   9.00000E+00   0.00000E+00   1.00000E-03   9.00000E+00   0.00000E+00   1.00000E-03   0.00000E+00   0.00000E+00             T             F   0.00000E+00   0.00000E+00   0.00000E+00   6.00000E-01   0.00000E+00   1.00000E+00   1.00000E+00   1.00000E+00   0.00000E+00   0.00000E+00   0.00000E+00   6.00000E-01   0.00000E+00   1.00000E+00   1.00000E+00   1.00000E+00   0.00000E+00   0.00000E+00   0.00000E+00
    36     37     38   4.78900E-01   0.00000E+00   0.00000E+00   9.00000E+00   0.00000E+00   1.00000E-03   9.00000E+00   0.00000E+00   1.00000E-03   0.00000E+00   0.00000E+00             T             F   0.00000E+00   0.00000E+00   0.00000E+00   6.00000E-01   0.00000E+00   1.00000E+00   1.00000E+00   1.00000E+00   0.00000E+00   0.00000E+00   0.00000E+00   6.00000E-01   0.00000E+00   1.00000E+00   1.00000E+00   1.00000E+00   0.00000E+00   0.00000E+00   0.00000E+00
    37     38     39   4.78900E-01   0.00000E+00   0.00000E+00   9.00000E+00   0.00000E+00   1.00000E-03   9.00000E+00   0.00000E+00   1.00000E-03   0.00000E+00   0.00000E+00             T             F   0.00000E+00   0.00000E+00   0.00000E+00   6.00000E-01   0.00000E+00   1.00000E+00   1.00000E+00   1.00000E+00   0.00000E+00   0.00000E+00   0.00000E+00   6.00000E-01   0.00000E+00   1.00000E+00   1.00000E+00   1.00000E+00   0.00000E+00   0.00000E+00   0.00000E+00
    38     39     40   4.78900E-01   0.00000E+00   0.00000E+00   9.00000E+00   0.00000E+00   1.00000E-03   9.00000E+00   0.00000E+00   1.00000E-03   0.00000E+00   0.00000E+00             T             F   0.00000E+00   0.00000E+00   0.00000E+00   6.00000E-01   0.00000E+00   1.00000E+00   1.00000E+00   1.00000E+00   0.00000E+00   0.00000E+00   0.00000E+00   6.00000E-01   0.00000E+00   1.00000E+00   1.00000E+00   1.00000E+00   0.00000E+00   0.00000E+00   0.00000E+00
    39     40     41   4.78900E-01   0.00000E+00   0.00000E+00   9.00000E+00   0.00000E+00   1.00000E-03   9.00000E+00   0.00000E+00   1.00000E-03   0.00000E+00   0.00000E+00             T             F   0.00000E+00   0.00000E+00   0.00000E+00   6.00000E-01   0.00000E+00   1.00000E+00   1.00000E+00   1.00000E+00   0.00000E+00   0.00000E+00   0.00000E+00   6.00000E-01   0.00000E+00   1.00000E+00   1.00000E+00   1.00000E+00   0.00000E+00   0.00000E+00   0.00000E+00
    40     41     42   4.78900E-01   0.00000E+00   0.00000E+00   9.00000E+00   0.00000E+00   1.00000E-03   9.00000E+00   0.00000E+00   1.00000E-03   0.00000E+00   0.00000E+00             T             F   0.00000E+00   0.00000E+00   0.00000E+00   6.00000E-01   0.00000E+00   1.00000E+00   1.00000E+00   1.00000E+00   0.00000E+00   0.00000E+00   0.00000E+00   6.00000E-01   0.00000E+00   1.00000E+00   1.00000E+00   1.00000E+00   0.00000E+00   0.00000E+00   0.00000E+00
    41     42     43   4.78900E-01   0.00000E+00   0.00000E+00   9.00000E+00   0.00000E+00   1.00000E-03   9.00000E+00   0.00000E+00   1.00000E-03   0.00000E+00   0.00000E+00             T             F   0.00000E+00   0.00000E+00   0.00000E+00   6.00000E-01   0.00000E+00   1.00000E+00   1.00000E+00   1.00000E+00   0.00000E+00   0.00000E+00   0.00000E+00   6.00000E-01   0.00000E+00   1.00000E+00   1.00000E+00   1.00000E+00   0.00000E+00   0.00000E+00   0.00000E+00
    42     43     44   4.78900E-01   0.00000E+00   0.00000E+00   9.00000E+00   0.00000E+00   1.00000E-03   9.00000E+00   0.00000E+00   1.00000E-03   0.00000E+00   0.00000E+00             T             F   0.00000E+00   0.00000E+00   0.00000E+00   6.00000E-01   0.00000E+00   1.00000E+00   1.00000E+00   1.00000E+00   0.00000E+00   0.00000E+00   0.00000E+00   6.00000E-01   0.00000E+00   1.00000E+00   1.00000E+00   1.00000E+00   0.00000E+00   0.00000E+00   0.00000E+00
    43     44     45   4.78900E-01   0.00000E+00   0.00000E+00   9.00000E+00   0.00000E+00   1.00000E-03   9.00000E+00   0.00000E+00   1.00000E-03   0.00000E+00   0.00000E+00             T             F   0.00000E+00   0.00000E+00   0.00000E+00   6.00000E-01   0.00000E+00   1.00000E+00   1.00000E+00   1.00000E+00   0.00000E+00   0.00000E+00   0.00000E+00   6.00000E-01   0.00000E+00   1.00000E+00   1.00000E+00   1.00000E+00   0.00000E+00   0.00000E+00   0.00000E+00
    44     45     46   4.78900E-01   0.00000E+00   0.00000E+00   9.00000E+00   0.00000E+00   1.00000E-03   9.00000E+00   0.00000E+00   1.00000E-03   0.00000E+00   0.00000E+00             T             F   0.00000E+00   0.00000E+00   0.00000E+00   6.00000E-01   0.00000E+00   1.00000E+00   1.00000E+00   1.00000E+00   0.00000E+00   0.00000E+00   0.00000E+00   6.00000E-01   0.00000E+00   1.00000E+00   1.00000E+00   1.00000E+00   0.00000E+00   0.00000E+00   0.00000E+00
    45     46     47   4.78900E-01   0.00000E+00   0.00000E+00   9.00000E+00   0.00000E+00   1.00000E-03   9.00000E+00   0.00000E+00   1.00000E-03   0.00000E+00   0.00000E+00             T             F   0.00000E+00   0.00000E+00   0.00000E+00   6.00000E-01   0.00000E+00   1.00000E+00   1.00000E+00   1.00000E+00   0.00000E+00   0.00000E+00   0.00000E+00   6.00000E-01   0.00000E+00   1.00000E+00   1.00000E+00   1.00000E+00   0.00000E+00   0.00000E+00   0.00000E+00
    46     47     48   4.78900E-01   0.00000E+00   0.00000E+00   9.00000E+00   0.00000E+00   1.00000E-03   9.00000E+00   0.00000E+00   1.00000E-03   0.00000E+00   0.00000E+00             T             F   0.00000E+00   0.00000E+00   0.00000E+00   6.00000E-01   0.00000E+00   1.00000E+00   1.00000E+00   1.00000E+00   0.00000E+00   0.00000E+00   0.00000E+00   6.00000E-01   0.00000E+00   1.00000E+00   1.00000E+00   1.00000E+00   0.00000E+00   0.00000E+00   0.00000E+00
    47     48     49   4.78900E-01   0.00000E+00   0.00000E+00   9.00000E+00   0.00000E+00   1.00000E-03   9.00000E+00   0.00000E+00   1.00000E-03   0.00000E+00   0.00000E+00             T             F   0.00000E+00   0.00000E+00   0.00000E+00   6.00000E-01   0.00000E+00   1.00000E+00   1.00000E+00   1.00000E+00   0.00000E+00   0.00000E+00   0.00000E+00   6.00000E-01   0.00000E+00   1.00000E+00   1.00000E+00   1.00000E+00   0.00000E+00   0.00000E+00   0.00000E+00
    48     49     50   4.78900E-01   0.00000E+00   0.00000E+00   9.00000E+00   0.00000E+00   1.00000E-03   9.00000E+00   0.00000E+00   1.00000E-03   0.00000E+00   0.00000E+00             T             F   0.00000E+00   0.00000E+00   0.00000E+00   6.00000E-01   0.00000E+00   1.00000E+00   1.00000E+00   1.00000E+00   0.00000E+00   0.00000E+00   0.00000E+00   6.00000E-01   0.00000E+00   1.00000E+00   1.00000E+00   1.00000E+00   0.00000E+00   0.00000E+00   0.00000E+00
    49     50     51   4.78900E-01   0.00000E+00   0.00000E+00   9.00000E+00   0.00000E+00   1.00000E-03   9.00000E+00   0.00000E+00   1.00000E-03   0.00000E+00   0.00000E+00             T             F   0.00000E+00   0.00000E+00   0.00000E+00   6.00000E-01   0.00000E+00   1.00000E+00   1.00000E+00   1.00000E+00   0.00000E+00   0.00000E+00   0.00000E+00   6.00000E-01   0.00000E+00   1.00000E+00   1.00000E+00   1.00000E+00   0.00000E+00   0.00000E+00   0.00000E+00
    50     51     52   4.78900E-01   0.00000E+00   0.00000E+00   9.00000E+00   0.00000E+00   1.00000E-03   9.00000E+00   0.00000E+00   1.00000E-03   0.00000E+00   0.00000E+00             T             F   0.00000E+00   0.00000E+00   0.00000E+00   6.00000E-01   0.00000E+00   1.00000E+00   1.00000E+00   1.00000E+00   0.00000E+00   0.00000E+00   0.00000E+00   6.00000E-01   0.00000E+00   1.00000E+00   1.00000E+00   1.00000E+00   0.00000E+00   0.00000E+00   0.00000E+00
    51     52     53   4.78900E-01   0.00000E+00   0.00000E+00   9.00000E+00   0.00000E+00   1.00000E-03   9.00000E+00   0.00000E+00   1.00000E-03   0.00000E+00   0.00000E+00             T             F   0.00000E+00   0.00000E+00   0.00000E+00   6.00000E-01   0.00000E+00   1.00000E+00   1.00000E+00   1.00000E+00   0.00000E+00   0.00000E+00   0.00000E+00   6.00000E-01   0.00000E+00   1.00000E+00   1.00000E+00   1.00000E+00   0.00000E+00   0.00000E+00   0.00000E+00
    52     53     54   4.78900E-01   0.00000E+00   0.00000E+00   9.00000E+00   0.00000E+00   1.00000E-03   9.00000E+00   0.00000E+00   1.00000E-03   0.00000E+00   0.00000E+00             T             F   0.00000E+00   0.00000E+00   0.00000E+00   6.00000E-01   0.00000E+00   1.00000E+00   1.00000E+00   1.00000E+00   0.00000E+00   0.00000E+00   0.00000E+00   6.00000E-01   0.00000E+00   1.00000E+00   1.00000E+00   1.00000E+00   0.00000E+00   0.00000E+00   0.00000E+00
    53     54     55   4.78900E-01   0.00000E+00   0.00000E+00   9.00000E+00   0.00000E+00   1.00000E-03   9.00000E+00   0.00000E+00   1.00000E-03   0.00000E+00   0.00000E+00             T             F   0.00000E+00   0.00000E+00   0.00000E+00   6.00000E-01   0.00000E+00   1.00000E+00   1.00000E+00   1.00000E+00   0.00000E+00   0.00000E+00   0.00000E+00   6.00000E-01   0.00000E+00   1.00000E+00   1.00000E+00   1.00000E+00   0.00000E+00   0.00000E+00   0.00000E+00
    54     55     56   4.78900E-01   0.00000E+00   0.00000E+00   9.00000E+00   0.00000E+00   1.00000E-03   9.00000E+00   0.00000E+00   1.00000E-03   0.00000E+00   0.00000E+00             T             F   0.00000E+00   0.00000E+00   0.00000E+00   6.00000E-01   0.00000E+00   1.00000E+00   1.00000E+00   1.00000E+00   0.00000E+00   0.00000E+00   0.00000E+00   6.00000E-01   0.00000E+00   1.00000E+00   1.00000E+00   1.00000E+00   0.00000E+00   0.00000E+00   0.00000E+00
    55     56     57   4.78900E-01   0.00000E+00   0.00000E+00   9.00000E+00   0.00000E+00   1.00000E-03   9.00000E+00   0.00000E+00   1.00000E-03   0.00000E+00   0.00000E+00             T             F   0.00000E+00   0.00000E+00   0.00000E+00   6.00000E-01   0.00000E+00   1.00000E+00   1.00000E+00   1.00000E+00   0.00000E+00   0.00000E+00   0.00000E+00   6.00000E-01   0.00000E+00   1.00000E+00   1.00000E+00   1.00000E+00   0.00000E+00   0.00000E+00   0.00000E+00
    56     57     58   4.78900E-01   0.00000E+00   0.00000E+00   9.00000E+00   0.00000E+00   1.00000E-03   9.00000E+00   0.00000E+00   1.00000E-03   0.00000E+00   0.00000E+00             T             F   0.00000E+00   0.00000E+00   0.00000E+00   6.00000E-01   0.00000E+00   1.00000E+00   1.00000E+00   1.00000E+00   0.00000E+00   0.00000E+00   0.00000E+00   6.00000E-01   0.00000E+00   1.00000E+00   1.00000E+00   1.00000E+00   0.00000E+00   0.00000E+00   0.00000E+00
    57     58     59   4.78900E-01   0.00000E+00   0.00000E+00   9.00000E+00   0.00000E+00   1.00000E-03   9.00000E+00   0.00000E+00   1.00000E-03   0.00000E+00   0.00000E+00             T             F   0.00000E+00   0.00000E+00   0.00000E+00   6.00000E-01   0.00000E+00   1.00000E+00   1.00000E+00   1.00000E+00   0.00000E+00   0.00000E+00   0.00000E+00   6.00000E-01   0.00000E+00   1.00000E+00   1.00000E+00   1.00000E+00   0.00000E+00   0.00000E+00   0.00000E+00
    58     59     60   4.78900E-01   0.00000E+00   0.00000E+00   9.00000E+00   0.00000E+00   1.00000E-03   9.00000E+00   0.00000E+00   1.00000E-03   0.00000E+00   0.00000E+00             T             F   0.00000E+00   0.00000E+00   0.00000E+00   6.00000E-01   0.00000E+00   1.00000E+00   1.00000E+00   1.00000E+00   0.00000E+00   0.00000E+00   0.00000E+00   6.00000E-01   0.00000E+00   1.00000E+00   1.00000E+00   1.00000E+00   0.00000E+00   0.00000E+00   0.00000E+00
    59     60     61   4.78900E-01   0.00000E+00   0.00000E+00   9.00000E+00   0.00000E+00   1.00000E-03   9.00000E+00   0.00000E+00   1.00000E-03   0.00000E+00   0.00000E+00             T             F   0.00000E+00   0.00000E+00   0.00000E+00   6.00000E-01   0.00000E+00   1.00000E+00   1.00000E+00   1.00000E+00   0.00000E+00   0.00000E+00   0.00000E+00   6.00000E-01   0.00000E+00   1.00000E+00   1.00000E+00   1.00000E+00   0.00000E+00   0.00000E+00   0.00000E+00
    60     61     62   4.78900E-01   0.00000E+00   0.00000E+00   9.00000E+00   0.00000E+00   1.00000E-03   9.00000E+00   0.00000E+00   1.00000E-03   0.00000E+00   0.00000E+00             T             F   0.00000E+00   0.00000E+00   0.00000E+00   6.00000E-01   0.00000E+00   1.00000E+00   1.00000E+00   1.00000E+00   0.00000E+00   0.00000E+00   0.00000E+00   6.00000E-01   0.00000E+00   1.00000E+00   1.00000E+00   1.00000E+00   0.00000E+00   0.00000E+00   0.00000E+00
    61     62     63   4.78900E-01   0.00000E+00   0.00000E+00   9.00000E+00   0.00000E+00   1.00000E-03   9.00000E+00   0.00000E+00   1.00000E-03   0.00000E+00   0.00000E+00             T             F   0.00000E+00   0.00000E+00   0.00000E+00   6.00000E-01   0.00000E+00   1.00000E+00   1.00000E+00   1.00000E+00   0.00000E+00   0.00000E+00   0.00000E+00   6.00000E-01   0.00000E+00   1.00000E+00   1.00000E+00   1.00000E+00   0.00000E+00   0.00000E+00   0.00000E+00
    62     63     64   4.78900E-01   0.00000E+00   0.00000E+00   9.00000E+00   0.00000E+00   1.00000E-03   9.00000E+00   0.00000E+00   1.00000E-03   0.00000E+00   0.00000E+00             T             F   0.00000E+00   0.00000E+00   0.00000E+00   6.00000E-01   0.00000E+00   1.00000E+00   1.00000E+00   1.00000E+00   0.00000E+00   0.00000E+00   0.00000E+00   6.00000E-01   0.00000E+00   1.00000E+00   1.00000E+00   1.00000E+00   0.00000E+00   0.00000E+00   0.00000E+00
    63     64     65   4.78900E-01   0.00000E+00   0.00000E+00   9.00000E+00   0.00000E+00   1.00000E-03   9.00000E+00   0.00000E+00   1.00000E-03   0.00000E+00   0.00000E+00             T             F   0.00000E+00   0.00000E+00   0.00000E+00   6.00000E-01   0.00000E+00   1.00000E+00   1.00000E+00   1.00000E+00   0.00000E+00   0.00000E+00   0.00000E+00   6.00000E-01   0.00000E+00   1.00000E+00   1.00000E+00   1.00000E+00   0.00000E+00   0.00000E+00   0.00000E+00
    64     65     66   4.78900E-01   0.00000E+00   0.00000E+00   9.00000E+00   0.00000E+00   1.00000E-03   9.00000E+00   0.00000E+00   1.00000E-03   0.00000E+00   0.00000E+00             T             F   0.00000E+00   0.00000E+00   0.00000E+00   6.00000E-01   0.00000E+00   1.00000E+00   1.00000E+00   1.00000E+00   0.00000E+00   0.00000E+00   0.00000E+00   6.00000E-01   0.00000E+00   1.00000E+00   1.00000E+00   1.00000E+00   0.00000E+00   0.00000E+00   0.00000E+00
    65     66     67   4.78900E-01   0.00000E+00   0.00000E+00   9.00000E+00   0.00000E+00   1.00000E-03   9.00000E+00   0.00000E+00   1.00000E-03   0.00000E+00   0.00000E+00             T             F   0.00000E+00   0.00000E+00   0.00000E+00   6.00000E-01   0.00000E+00   1.00000E+00   1.00000E+00   1.00000E+00   0.00000E+00   0.00000E+00   0.00000E+00   6.00000E-01   0.00000E+00   1.00000E+00   1.00000E+00   1.00000E+00   0.00000E+00   0.00000E+00   0.00000E+00
    66     67     68   4.78900E-01   0.00000E+00   0.00000E+00   9.00000E+00   0.00000E+00   1.00000E-03   9.00000E+00   0.00000E+00   1.00000E-03   0.00000E+00   0.00000E+00             T             F   0.00000E+00   0.00000E+00   0.00000E+00   6.00000E-01   0.00000E+00   1.00000E+00   1.00000E+00   1.00000E+00   0.00000E+00   0.00000E+00   0.00000E+00   6.00000E-01   0.00000E+00   1.00000E+00   1.00000E+00   1.00000E+00   0.00000E+00   0.00000E+00   0.00000E+00
    67     68     69   4.78900E-01   0.00000E+00   0.00000E+00   9.00000E+00   0.00000E+00   1.00000E-03   9.00000E+00   0.00000E+00   1.00000E-03   0.00000E+00   0.00000E+00             T             F   0.00000E+00   0.00000E+00   0.00000E+00   6.00000E-01   0.00000E+00   1.00000E+00   1.00000E+00   1.00000E+00   0.00000E+00   0.00000E+00   0.00000E+00   6.00000E-01   0.00000E+00   1.00000E+00   1.00000E+00   1.00000E+00   0.00000E+00   0.00000E+00   0.00000E+00
    68     69     70   4.78900E-01   0.00000E+00   0.00000E+00   9.00000E+00   0.00000E+00   1.00000E-03   9.00000E+00   0.00000E+00   1.00000E-03   0.00000E+00   0.00000E+00             T             F   0.00000E+00   0.00000E+00   0.00000E+00   6.00000E-01   0.00000E+00   1.00000E+00   1.00000E+00   1.00000E+00   0.00000E+00   0.00000E+00   0.00000E+00   6.00000E-01   0.00000E+00   1.00000E+00   1.00000E+00   1.00000E+00   0.00000E+00   0.00000E+00   0.00000E+00
    69     70     71   4.78900E-01   0.00000E+00   0.00000E+00   9.00000E+00   0.00000E+00   1.00000E-03   9.00000E+00   0.00000E+00   1.00000E-03   0.00000E+00   0.00000E+00             T             F   0.00000E+00   0.00000E+00   0.00000E+00   6.00000E-01   0.00000E+00   1.00000E+00   1.00000E+00   1.00000E+00   0.00000E+00   0.00000E+00   0.00000E+00   6.00000E-01   0.00000E+00   1.00000E+00   1.00000E+00   1.00000E+00   0.00000E+00   0.00000E+00   0.00000E+00
    70     71     72   4.78900E-01   0.00000E+00   0.00000E+00   9.00000E+00   0.00000E+00   1.00000E-03   9.00000E+00   0.00000E+00   1.00000E-03   0.00000E+00   0.00000E+00             T             F   0.00000E+00   0.00000E+00   0.00000E+00   6.00000E-01   0.00000E+00   1.00000E+00   1.00000E+00   1.00000E+00   0.00000E+00   0.00000E+00   0.00000E+00   6.00000E-01   0.00000E+00   1.00000E+00   1.00000E+00   1.00000E+00   0.00000E+00   0.00000E+00   0.00000E+00
    71     72     73   4.78900E-01   0.00000E+00   0.00000E+00   9.00000E+00   0.00000E+00   1.00000E-03   9.00000E+00   0.00000E+00   1.00000E-03   0.00000E+00   0.00000E+00             T             F   0.00000E+00   0.00000E+00   0.00000E+00   6.00000E-01   0.00000E+00   1.00000E+00   1.00000E+00   1.00000E+00   0.00000E+00   0.00000E+00   0.00000E+00   6.00000E-01   0.00000E+00   1.00000E+00   1.00000E+00   1.00000E+00   0.00000E+00   0.00000E+00   0.00000E+00
    72     73     74   4.78900E-01   0.00000E+00   0.00000E+00   9.00000E+00   0.00000E+00   1.00000E-03   9.00000E+00   0.00000E+00   1.00000E-03   0.00000E+00   0.00000E+00             T             F   0.00000E+00   0.00000E+00   0.00000E+00   6.00000E-01   0.00000E+00   1.00000E+00   1.00000E+00   1.00000E+00   0.00000E+00   0.00000E+00   0.00000E+00   6.00000E-01   0.00000E+00   1.00000E+00   1.00000E+00   1.00000E+00   0.00000E+00   0.00000E+00   0.00000E+00
    73     74     75   4.78900E-01   0.00000E+00   0.00000E+00   9.00000E+00   0.00000E+00   1.00000E-03   9.00000E+00   0.00000E+00   1.00000E-03   0.00000E+00   0.00000E+00             T             F   0.00000E+00   0.00000E+00   0.00000E+00   6.00000E-01   0.00000E+00   1.00000E+00   1.00000E+00   1.00000E+00   0.00000E+00   0.00000E+00   0.00000E+00   6.00000E-01   0.00000E+00   1.00000E+00   1.00000E+00   1.00000E+00   0.00000E+00   0.00000E+00   0.00000E+00
    74     75     76   4.78900E-01   0.00000E+00   0.00000E+00   9.00000E+00   0.00000E+00   1.00000E-03   9.00000E+00   0.00000E+00   1.00000E-03   0.00000E+00   0.00000E+00             T             F   0.00000E+00   0.00000E+00   0.00000E+00   6.00000E-01   0.00000E+00   1.00000E+00   1.00000E+00   1.00000E+00   0.00000E+00   0.00000E+00   0.00000E+00   6.00000E-01   0.00000E+00   1.00000E+00   1.00000E+00   1.00000E+00   0.00000E+00   0.00000E+00   0.00000E+00
    75     76     77   4.78900E-01   0.00000E+00   0.00000E+00   9.00000E+00   0.00000E+00   1.00000E-03   9.00000E+00   0.00000E+00   1.00000E-03   0.00000E+00   0.00000E+00             T             F   0.00000E+00   0.00000E+00   0.00000E+00   6.00000E-01   0.00000E+00   1.00000E+00   1.00000E+00   1.00000E+00   0.00000E+00   0.00000E+00   0.00000E+00   6.00000E-01   0.00000E+00   1.00000E+00   1.00000E+00   1.00000E+00   0.00000E+00   0.00000E+00   0.00000E+00
    76     77     78   4.78900E-01   0.00000E+00   0.00000E+00   9.00000E+00   0.00000E+00   1.00000E-03   9.00000E+00   0.00000E+00   1.00000E-03   0.00000E+00   0.00000E+00             T             F   0.00000E+00   0.00000E+00   0.00000E+00   6.00000E-01   0.00000E+00   1.00000E+00   1.00000E+00   1.00000E+00   0.00000E+00   0.00000E+00   0.00000E+00   6.00000E-01   0.00000E+00   1.00000E+00   1.00000E+00   1.00000E+00   0.00000E+00   0.00000E+00   0.00000E+00
    77     78     79   4.78900E-01   0.00000E+00   0.00000E+00   9.00000E+00   0.00000E+00   1.00000E-03   9.00000E+00   0.00000E+00   1.00000E-03   0.00000E+00   0.00000E+00             T             F   0.00000E+00   0.00000E+00   0.00000E+00   6.00000E-01   0.00000E+00   1.00000E+00   1.00000E+00   1.00000E+00   0.00000E+00   0.00000E+00   0.00000E+00   6.00000E-01   0.00000E+00   1.00000E+00   1.00000E+00   1.00000E+00   0.00000E+00   0.00000E+00   0.00000E+00
    78     79     80   4.78900E-01   0.00000E+00   0.00000E+00   9.00000E+00   0.00000E+00   1.00000E-03   9.00000E+00   0.00000E+00   1.00000E-03   0.00000E+00   0.00000E+00             T             F   0.00000E+00   0.00000E+00   0.00000E+00   6.00000E-01   0.00000E+00   1.00000E+00   1.00000E+00   1.00000E+00   0.00000E+00   0.00000E+00   0.00000E+00   6.00000E-01   0.00000E+00   1.00000E+00   1.00000E+00   1.00000E+00   0.00000E+00   0.00000E+00   0.00000E+00
    79     80     81   4.78900E-01   0.00000E+00   0.00000E+00   9.00000E+00   0.00000E+00   1.00000E-03   9.00000E+00   0.00000E+00   1.00000E-03   0.00000E+00   0.00000E+00             T             F   0.00000E+00   0.00000E+00   0.00000E+00   6.00000E-01   0.00000E+00   1.00000E+00   1.00000E+00   1.00000E+00   0.00000E+00   0.00000E+00   0.00000E+00   6.00000E-01   0.00000E+00   1.00000E+00   1.00000E+00   1.00000E+00   0.00000E+00   0.00000E+00   0.00000E+00
    80     81     82   4.78900E-01   0.00000E+00   0.00000E+00   9.00000E+00   0.00000E+00   1.00000E-03   9.00000E+00   0.00000E+00   1.00000E-03   0.00000E+00   0.00000E+00             T             F   0.00000E+00   0.00000E+00   0.00000E+00   6.00000E-01   0.00000E+00   1.00000E+00   1.00000E+00   1.00000E+00   0.00000E+00   0.00000E+00   0.00000E+00   6.00000E-01   0.00000E+00   1.00000E+00   1.00000E+00   1.00000E+00   0.00000E+00   0.00000E+00   0.00000E+00
    81     82     83   4.78900E-01   0.00000E+00   0.00000E+00   9.00000E+00   0.00000E+00   1.00000E-03   9.00000E+00   0.00000E+00   1.00000E-03   0.00000E+00   0.00000E+00             T             F   0.00000E+00   0.00000E+00   0.00000E+00   6.00000E-01   0.00000E+00   1.00000E+00   1.00000E+00   1.00000E+00   0.00000E+00   0.00000E+00   0.00000E+00   6.00000E-01   0.00000E+00   1.00000E+00   1.00000E+00   1.00000E+00   0.00000E+00   0.00000E+00   0.00000E+00
    82     83     84   4.78900E-01   0.00000E+00   0.00000E+00   9.00000E+00   0.00000E+00   1.00000E-03   9.00000E+00   0.00000E+00   1.00000E-03   0.00000E+00   0.00000E+00             T             F   0.00000E+00   0.00000E+00   0.00000E+00   6.00000E-01   0.00000E+00   1.00000E+00   1.00000E+00   1.00000E+00   0.00000E+00   0.00000E+00   0.00000E+00   6.00000E-01   0.00000E+00   1.00000E+00   1.00000E+00   1.00000E+00   0.00000E+00   0.00000E+00   0.00000E+00
    83     84     85   4.78900E-01   0.00000E+00   0.00000E+00   9.00000E+00   0.00000E+00   1.00000E-03   9.00000E+00   0.00000E+00   1.00000E-03   0.00000E+00   0.00000E+00             T             F   0.00000E+00   0.00000E+00   0.00000E+00   6.00000E-01   0.00000E+00   1.00000E+00   1.00000E+00   1.00000E+00   0.00000E+00   0.00000E+00   0.00000E+00   6.00000E-01   0.00000E+00   1.00000E+00   1.00000E+00   1.00000E+00   0.00000E+00   0.00000E+00   0.00000E+00
    84     85     86   4.78900E-01   0.00000E+00   0.00000E+00   9.00000E+00   0.00000E+00   1.00000E-03   9.00000E+00   0.00000E+00   1.00000E-03   0.00000E+00   0.00000E+00             T             F   0.00000E+00   0.00000E+00   0.00000E+00   6.00000E-01   0.00000E+00   1.00000E+00   1.00000E+00   1.00000E+00   0.00000E+00   0.00000E+00   0.00000E+00   6.00000E-01   0.00000E+00   1.00000E+00   1.00000E+00   1.00000E+00   0.00000E+00   0.00000E+00   0.00000E+00
    85     86     87   4.78900E-01   0.00000E+00   0.00000E+00   9.00000E+00   0.00000E+00   1.00000E-03   9.00000E+00   0.00000E+00   1.00000E-03   0.00000E+00   0.00000E+00             T             F   0.00000E+00   0.00000E+00   0.00000E+00   6.00000E-01   0.00000E+00   1.00000E+00   1.00000E+00   1.00000E+00   0.00000E+00   0.00000E+00   0.00000E+00   6.00000E-01   0.00000E+00   1.00000E+00   1.00000E+00   1.00000E+00   0.00000E+00   0.00000E+00   0.00000E+00
    86     87     88   4.78900E-01   0.00000E+00   0.00000E+00   9.00000E+00   0.00000E+00   1.00000E-03   9.00000E+00   0.00000E+00   1.00000E-03   0.00000E+00   0.00000E+00             T             F   0.00000E+00   0.00000E+00   0.00000E+00   6.00000E-01   0.00000E+00   1.00000E+00   1.00000E+00   1.00000E+00   0.00000E+00   0.00000E+00   0.00000E+00   6.00000E-01   0.00000E+00   1.00000E+00   1.00000E+00   1.00000E+00   0.00000E+00   0.00000E+00   0.00000E+00
    87     88     89   4.78900E-01   0.00000E+00   0.00000E+00   9.00000E+00   0.00000E+00   1.00000E-03   9.00000E+00   0.00000E+00   1.00000E-03   0.00000E+00   0.00000E+00             T             F   0.00000E+00   0.00000E+00   0.00000E+00   6.00000E-01   0.00000E+00   1.00000E+00   1.00000E+00   1.00000E+00   0.00000E+00   0.00000E+00   0.00000E+00   6.00000E-01   0.00000E+00   1.00000E+00   1.00000E+00   1.00000E+00   0.00000E+00   0.00000E+00   0.00000E+00
    88     89     90   4.78900E-01   0.00000E+00   0.00000E+00   9.00000E+00   0.00000E+00   1.00000E-03   9.00000E+00   0.00000E+00   1.00000E-03   0.00000E+00   0.00000E+00             T             F   0.00000E+00   0.00000E+00   0.00000E+00   6.00000E-01   0.00000E+00   1.00000E+00   1.00000E+00   1.00000E+00   0.00000E+00   0.00000E+00   0.00000E+00   6.00000E-01   0.00000E+00   1.00000E+00   1.00000E+00   1.00000E+00   0.00000E+00   0.00000E+00   0.00000E+00
    89     90     91   4.78900E-01   0.00000E+00   0.00000E+00   9.00000E+00   0.00000E+00   1.00000E-03   9.00000E+00   0.00000E+00   1.00000E-03   0.00000E+00   0.00000E+00             T             F   0.00000E+00   0.00000E+00   0.00000E+00   6.00000E-01   0.00000E+00   1.00000E+00   1.00000E+00   1.00000E+00   0.00000E+00   0.00000E+00   0.00000E+00   6.00000E-01   0.00000E+00   1.00000E+00   1.00000E+00   1.00000E+00   0.00000E+00   0.00000E+00   0.00000E+00
    90     91     92   4.78900E-01   0.00000E+00   0.00000E+00   9.00000E+00   0.00000E+00   1.00000E-03   9.00000E+00   0.00000E+00   1.00000E-03   0.00000E+00   0.00000E+00             T             F   0.00000E+00   0.00000E+00   0.00000E+00   6.00000E-01   0.00000E+00   1.00000E+00   1.00000E+00   1.00000E+00   0.00000E+00   0.00000E+00   0.00000E+00   6.00000E-01   0.00000E+00   1.00000E+00   1.00000E+00   1.00000E+00   0.00000E+00   0.00000E+00   0.00000E+00
    91     92     93   4.78900E-01   0.00000E+00   0.00000E+00   9.00000E+00   0.00000E+00   1.00000E-03   9.00000E+00   0.00000E+00   1.00000E-03   0.00000E+00   0.00000E+00             T             F   0.00000E+00   0.00000E+00   0.00000E+00   6.00000E-01   0.00000E+00   1.00000E+00   1.00000E+00   1.00000E+00   0.00000E+00   0.00000E+00   0.00000E+00   6.00000E-01   0.00000E+00   1.00000E+00   1.00000E+00   1.00000E+00   0.00000E+00   0.00000E+00   0.00000E+00
    92     93     94   4.78900E-01   0.00000E+00   0.00000E+00   9.00000E+00   0.00000E+00   1.00000E-03   9.00000E+00   0.00000E+00   1.00000E-03   0.00000E+00   0.00000E+00             T             F   0.00000E+00   0.00000E+00   0.00000E+00   6.00000E-01   0.00000E+00   1.00000E+00   1.00000E+00   1.00000E+00   0.00000E+00   0.00000E+00   0.00000E+00   6.00000E-01   0.00000E+00   1.00000E+00   1.00000E+00   1.00000E+00   0.00000E+00   0.00000E+00   0.00000E+00
[...]
       4752   0.59400E+02       1.01573E+03       0.00000E+00       0.00000E+00       0.00000E+00      -1.08416E+03       0.00000E+00       1.01568E+03       0.00000E+00       1.08288E+03       0.00000E+00       0.00000E+00      -3.59983E+01       0.00000E+00       0.00000E+00       0.00000E+00       3.07200E+03       0.00000E+00       0.00000E+00       3.07200E+03       0.00000E+00       6.97156E-09
       4753   0.59413E+02       1.00953E+03       0.00000E+00       0.00000E+00       0.00000E+00      -1.09998E+03       0.00000E+00       1.00993E+03       0.00000E+00       1.09480E+03       0.00000E+00       0.00000E+00      -3.59800E+01       0.00000E+00       0.00000E+00       0.00000E+00       3.08291E+03       0.00000E+00       0.00000E+00       2.92754E+03       0.00000E+00       6.89698E-09
       4754   0.59425E+02       9.89440E+02       0.00000E+00       0.00000E+00       0.00000E+00      -1.05728E+03       0.00000E+00       9.89333E+02       0.00000E+00       1.05643E+03       0.00000E+00       0.00000E+00      -3.59975E+01       0.00000E+00       0.00000E+00       0.00000E+00       3.08565E+03       0.00000E+00       0.00000E+00       3.07883E+03       0.00000E+00       6.79357E-09
       4755   0.59438E+02       9.75336E+02       0.00000E+00       0.00000E+00       0.00000E+00      -1.06567E+03       0.00000E+00       9.75738E+02       0.00000E+00       1.06057E+03       0.00000E+00       0.00000E+00      -3.59797E+01       0.00000E+00       0.00000E+00       0.00000E+00       3.07267E+03       0.00000E+00       0.00000E+00       2.91741E+03       0.00000E+00       6.66554E-09
       4756   0.59450E+02       9.47467E+02       0.00000E+00       0.00000E+00       0.00000E+00      -1.01547E+03       0.00000E+00       9.47413E+02       0.00000E+00       1.01547E+03       0.00000E+00       0.00000E+00      -3.59967E+01       0.00000E+00       0.00000E+00       0.00000E+00       3.06517E+03       0.00000E+00       0.00000E+00       3.05835E+03       0.00000E+00       6.50957E-09
       4757   0.59463E+02       9.25863E+02       0.00000E+00       0.00000E+00       0.00000E+00      -1.01588E+03       0.00000E+00       9.26282E+02       0.00000E+00       1.01033E+03       0.00000E+00       0.00000E+00      -3.59793E+01       0.00000E+00       0.00000E+00       0.00000E+00       3.04302E+03       0.00000E+00       0.00000E+00       2.89010E+03       0.00000E+00       6.33007E-09
       4758   0.59475E+02       8.90613E+02       0.00000E+00       0.00000E+00       0.00000E+00      -9.59147E+02       0.00000E+00       8.90453E+02       0.00000E+00       9.55733E+02       0.00000E+00       0.00000E+00      -3.59971E+01       0.00000E+00       0.00000E+00       0.00000E+00       3.02421E+03       0.00000E+00       0.00000E+00       3.01739E+03       0.00000E+00       6.12396E-09
       4759   0.59488E+02       8.61893E+02       0.00000E+00       0.00000E+00       0.00000E+00      -9.51229E+02       0.00000E+00       8.62305E+02       0.00000E+00       9.45422E+02       0.00000E+00       0.00000E+00      -3.59792E+01       0.00000E+00       0.00000E+00       0.00000E+00       2.99331E+03       0.00000E+00       0.00000E+00       2.84221E+03       0.00000E+00       5.89581E-09
       4760   0.59500E+02       8.19787E+02       0.00000E+00       0.00000E+00       0.00000E+00      -8.85760E+02       0.00000E+00       8.19733E+02       0.00000E+00       8.84053E+02       0.00000E+00       0.00000E+00      -3.59967E+01       0.00000E+00       0.00000E+00       0.00000E+00       2.96277E+03       0.00000E+00       0.00000E+00       2.96277E+03       0.00000E+00       5.64274E-09
       4761   0.59513E+02       7.84373E+02       0.00000E+00       0.00000E+00       0.00000E+00      -8.72643E+02       0.00000E+00       7.84852E+02       0.00000E+00       8.66729E+02       0.00000E+00       0.00000E+00      -3.59789E+01       0.00000E+00       0.00000E+00       0.00000E+00       2.92483E+03       0.00000E+00       0.00000E+00       2.77042E+03       0.00000E+00       5.36953E-09
       4762   0.59525E+02       7.36000E+02       0.00000E+00       0.00000E+00       0.00000E+00      -8.00427E+02       0.00000E+00       7.35893E+02       0.00000E+00       7.99573E+02       0.00000E+00       0.00000E+00      -3.59963E+01       0.00000E+00       0.00000E+00       0.00000E+00       2.88085E+03       0.00000E+00       0.00000E+00       2.88085E+03       0.00000E+00       5.07346E-09
       4763   0.59538E+02       6.94583E+02       0.00000E+00       0.00000E+00       0.00000E+00      -7.81283E+02       0.00000E+00       6.95082E+02       0.00000E+00       7.75542E+02       0.00000E+00       0.00000E+00      -3.59788E+01       0.00000E+00       0.00000E+00       0.00000E+00       2.83950E+03       0.00000E+00       0.00000E+00       2.68381E+03       0.00000E+00       4.75947E-09
       4764   0.59550E+02       6.40533E+02       0.00000E+00       0.00000E+00       0.00000E+00      -7.04853E+02       0.00000E+00       6.40533E+02       0.00000E+00       7.03147E+02       0.00000E+00       0.00000E+00      -3.59958E+01       0.00000E+00       0.00000E+00       0.00000E+00       2.79893E+03       0.00000E+00       0.00000E+00       2.79211E+03       0.00000E+00       4.42500E-09
       4765   0.59562E+02       5.93870E+02       0.00000E+00       0.00000E+00       0.00000E+00      -6.79016E+02       0.00000E+00       5.94383E+02       0.00000E+00       6.73089E+02       0.00000E+00       0.00000E+00      -3.59787E+01       0.00000E+00       0.00000E+00       0.00000E+00       2.73763E+03       0.00000E+00       0.00000E+00       2.58135E+03       0.00000E+00       4.07513E-09
       4766   0.59575E+02       5.35253E+02       0.00000E+00       0.00000E+00       0.00000E+00      -5.96480E+02       0.00000E+00       5.35147E+02       0.00000E+00       5.96480E+02       0.00000E+00       0.00000E+00      -3.59958E+01       0.00000E+00       0.00000E+00       0.00000E+00       2.68288E+03       0.00000E+00       0.00000E+00       2.68288E+03       0.00000E+00       3.70746E-09
       4767   0.59588E+02       4.83851E+02       0.00000E+00       0.00000E+00       0.00000E+00      -5.67103E+02       0.00000E+00       4.84375E+02       0.00000E+00       5.60989E+02       0.00000E+00       0.00000E+00      -3.59787E+01       0.00000E+00       0.00000E+00       0.00000E+00       2.62691E+03       0.00000E+00       0.00000E+00       2.46775E+03       0.00000E+00       3.32721E-09
       4768   0.59600E+02       4.20693E+02       0.00000E+00       0.00000E+00       0.00000E+00      -4.81280E+02       0.00000E+00       4.20907E+02       0.00000E+00       4.80427E+02       0.00000E+00       0.00000E+00      -3.59954E+01       0.00000E+00       0.00000E+00       0.00000E+00       2.55317E+03       0.00000E+00       0.00000E+00       2.55317E+03       0.00000E+00       2.93207E-09
       4769   0.59613E+02       3.66201E+02       0.00000E+00       0.00000E+00       0.00000E+00      -4.47369E+02       0.00000E+00       3.66718E+02       0.00000E+00       4.41169E+02       0.00000E+00       0.00000E+00      -3.59787E+01       0.00000E+00       0.00000E+00       0.00000E+00       2.50163E+03       0.00000E+00       0.00000E+00       2.34274E+03       0.00000E+00       2.52737E-09
       4770   0.59625E+02       3.00160E+02       0.00000E+00       0.00000E+00       0.00000E+00      -3.57547E+02       0.00000E+00       3.00160E+02       0.00000E+00       3.56693E+02       0.00000E+00       0.00000E+00      -3.59954E+01       0.00000E+00       0.00000E+00       0.00000E+00       2.44395E+03       0.00000E+00       0.00000E+00       2.43712E+03       0.00000E+00       2.11092E-09
       4771   0.59638E+02       2.42761E+02       0.00000E+00       0.00000E+00       0.00000E+00      -3.21509E+02       0.00000E+00       2.43310E+02       0.00000E+00       3.15462E+02       0.00000E+00       0.00000E+00      -3.59789E+01       0.00000E+00       0.00000E+00       0.00000E+00       2.36600E+03       0.00000E+00       0.00000E+00       2.20621E+03       0.00000E+00       1.68811E-09
       4772   0.59650E+02       1.74613E+02       0.00000E+00       0.00000E+00       0.00000E+00      -2.29547E+02       0.00000E+00       1.74613E+02       0.00000E+00       2.27840E+02       0.00000E+00       0.00000E+00      -3.59963E+01       0.00000E+00       0.00000E+00       0.00000E+00       2.30059E+03       0.00000E+00       0.00000E+00       2.29376E+03       0.00000E+00       1.25682E-09
       4773   0.59663E+02       1.15463E+02       0.00000E+00       0.00000E+00       0.00000E+00      -1.91936E+02       0.00000E+00       1.16040E+02       0.00000E+00       1.85769E+02       0.00000E+00       0.00000E+00      -3.59790E+01       0.00000E+00       0.00000E+00       0.00000E+00       2.22664E+03       0.00000E+00       0.00000E+00       2.06455E+03       0.00000E+00       8.22514E-10
       4774   0.59675E+02       4.60800E+01       0.00000E+00       0.00000E+00       0.00000E+00      -9.81333E+01       0.00000E+00       4.60800E+01       0.00000E+00       9.72800E+01       0.00000E+00       0.00000E+00      -3.59963E+01       0.00000E+00       0.00000E+00       0.00000E+00       2.14357E+03       0.00000E+00       0.00000E+00       2.14357E+03       0.00000E+00       3.83091E-10
       4775   0.59688E+02      -1.37271E+01       0.00000E+00       0.00000E+00       0.00000E+00      -6.00758E+01       0.00000E+00      -1.31184E+01       0.00000E+00       5.40554E+01       0.00000E+00       0.00000E+00      -3.59791E+01       0.00000E+00       0.00000E+00       0.00000E+00       2.08147E+03       0.00000E+00       0.00000E+00       1.91981E+03       0.00000E+00      -5.59029E-11
       4776   0.59700E+02      -8.32000E+01       0.00000E+00       0.00000E+00       0.00000E+00       3.24267E+01       0.00000E+00      -8.32000E+01       0.00000E+00      -3.41333E+01       0.00000E+00       0.00000E+00      -3.59958E+01       0.00000E+00       0.00000E+00       0.00000E+00       2.02069E+03       0.00000E+00       0.00000E+00       2.00704E+03       0.00000E+00      -4.96584E-10
       4777   0.59713E+02      -1.42755E+02       0.00000E+00       0.00000E+00       0.00000E+00       7.15175E+01       0.00000E+00      -1.42145E+02       0.00000E+00      -7.74646E+01       0.00000E+00       0.00000E+00      -3.59792E+01       0.00000E+00       0.00000E+00       0.00000E+00       1.93635E+03       0.00000E+00       0.00000E+00       1.77383E+03       0.00000E+00      -9.33426E-10
       4778   0.59725E+02      -2.11413E+02       0.00000E+00       0.00000E+00       0.00000E+00       1.64693E+02       0.00000E+00      -2.11413E+02       0.00000E+00      -1.65547E+02       0.00000E+00       0.00000E+00      -3.59967E+01       0.00000E+00       0.00000E+00       0.00000E+00       1.86368E+03       0.00000E+00       0.00000E+00       1.86368E+03       0.00000E+00      -1.36851E-09
       4779   0.59738E+02      -2.69629E+02       0.00000E+00       0.00000E+00       0.00000E+00       2.00671E+02       0.00000E+00      -2.69017E+02       0.00000E+00      -2.06811E+02       0.00000E+00       0.00000E+00      -3.59793E+01       0.00000E+00       0.00000E+00       0.00000E+00       1.79080E+03       0.00000E+00       0.00000E+00       1.63037E+03       0.00000E+00      -1.79635E-09
       4780   0.59750E+02      -3.36533E+02       0.00000E+00       0.00000E+00       0.00000E+00       2.91840E+02       0.00000E+00      -3.36427E+02       0.00000E+00      -2.91840E+02       0.00000E+00       0.00000E+00      -3.59967E+01       0.00000E+00       0.00000E+00       0.00000E+00       1.72032E+03       0.00000E+00       0.00000E+00       1.72032E+03       0.00000E+00      -2.21908E-09
       4781   0.59763E+02      -3.92384E+02       0.00000E+00       0.00000E+00       0.00000E+00       3.25758E+02       0.00000E+00      -3.91760E+02       0.00000E+00      -3.32071E+02       0.00000E+00       0.00000E+00      -3.59794E+01       0.00000E+00       0.00000E+00       0.00000E+00       1.65070E+03       0.00000E+00       0.00000E+00       1.48999E+03       0.00000E+00      -2.63124E-09
       4782   0.59775E+02      -4.56640E+02       0.00000E+00       0.00000E+00       0.00000E+00       4.14720E+02       0.00000E+00      -4.56533E+02       0.00000E+00      -4.14720E+02       0.00000E+00       0.00000E+00      -3.59963E+01       0.00000E+00       0.00000E+00       0.00000E+00       1.56331E+03       0.00000E+00       0.00000E+00       1.57696E+03       0.00000E+00      -3.03502E-09
       4783   0.59788E+02      -5.09107E+02       0.00000E+00       0.00000E+00       0.00000E+00       4.44978E+02       0.00000E+00      -5.08437E+02       0.00000E+00      -4.51171E+02       0.00000E+00       0.00000E+00      -3.59794E+01       0.00000E+00       0.00000E+00       0.00000E+00       1.51619E+03       0.00000E+00       0.00000E+00       1.35351E+03       0.00000E+00      -3.42502E-09
       4784   0.59800E+02      -5.69600E+02       0.00000E+00       0.00000E+00       0.00000E+00       5.29067E+02       0.00000E+00      -5.69387E+02       0.00000E+00      -5.29920E+02       0.00000E+00       0.00000E+00      -3.59967E+01       0.00000E+00       0.00000E+00       0.00000E+00       1.44725E+03       0.00000E+00       0.00000E+00       1.45408E+03       0.00000E+00      -3.80353E-09
       4785   0.59812E+02      -6.17942E+02       0.00000E+00       0.00000E+00       0.00000E+00       5.56124E+02       0.00000E+00      -6.17253E+02       0.00000E+00      -5.62201E+02       0.00000E+00       0.00000E+00      -3.59795E+01       0.00000E+00       0.00000E+00       0.00000E+00       1.38803E+03       0.00000E+00       0.00000E+00       1.22743E+03       0.00000E+00      -4.16533E-09
       4786   0.59825E+02      -6.73920E+02       0.00000E+00       0.00000E+00       0.00000E+00       6.36587E+02       0.00000E+00      -6.73813E+02       0.00000E+00      -6.37440E+02       0.00000E+00       0.00000E+00      -3.59967E+01       0.00000E+00       0.00000E+00       0.00000E+00       1.32437E+03       0.00000E+00       0.00000E+00       1.32437E+03       0.00000E+00      -4.51277E-09
       4787   0.59838E+02      -7.17230E+02       0.00000E+00       0.00000E+00       0.00000E+00       6.57358E+02       0.00000E+00      -7.16516E+02       0.00000E+00      -6.63618E+02       0.00000E+00       0.00000E+00      -3.59795E+01       0.00000E+00       0.00000E+00       0.00000E+00       1.27406E+03       0.00000E+00       0.00000E+00       1.11314E+03       0.00000E+00      -4.84060E-09
       4788   0.59850E+02      -7.67573E+02       0.00000E+00       0.00000E+00       0.00000E+00       7.32160E+02       0.00000E+00      -7.67573E+02       0.00000E+00      -7.32160E+02       0.00000E+00       0.00000E+00      -3.59971E+01       0.00000E+00       0.00000E+00       0.00000E+00       1.21515E+03       0.00000E+00       0.00000E+00       1.22197E+03       0.00000E+00      -5.15148E-09
       4789   0.59863E+02      -8.05391E+02       0.00000E+00       0.00000E+00       0.00000E+00       7.47281E+02       0.00000E+00      -8.04669E+02       0.00000E+00      -7.53551E+02       0.00000E+00       0.00000E+00      -3.59796E+01       0.00000E+00       0.00000E+00       0.00000E+00       1.17054E+03       0.00000E+00       0.00000E+00       1.01002E+03       0.00000E+00      -5.44030E-09
       4790   0.59875E+02      -8.49707E+02       0.00000E+00       0.00000E+00       0.00000E+00       8.14933E+02       0.00000E+00      -8.49493E+02       0.00000E+00      -8.15787E+02       0.00000E+00       0.00000E+00      -3.59971E+01       0.00000E+00       0.00000E+00       0.00000E+00       1.11957E+03       0.00000E+00       0.00000E+00       1.12640E+03       0.00000E+00      -5.70978E-09
       4791   0.59888E+02      -8.81062E+02       0.00000E+00       0.00000E+00       0.00000E+00       8.24488E+02       0.00000E+00      -8.80333E+02       0.00000E+00      -8.30778E+02       0.00000E+00       0.00000E+00      -3.59796E+01       0.00000E+00       0.00000E+00       0.00000E+00       1.08259E+03       0.00000E+00       0.00000E+00       9.22366E+02       0.00000E+00      -5.95508E-09
       4792   0.59900E+02      -9.18613E+02       0.00000E+00       0.00000E+00       0.00000E+00       8.85760E+02       0.00000E+00      -9.18400E+02       0.00000E+00      -8.85760E+02       0.00000E+00       0.00000E+00      -3.59971E+01       0.00000E+00       0.00000E+00       0.00000E+00       1.05131E+03       0.00000E+00       0.00000E+00       1.04448E+03       0.00000E+00      -6.17899E-09
       4793   0.59913E+02      -9.43066E+02       0.00000E+00       0.00000E+00       0.00000E+00       8.87848E+02       0.00000E+00      -9.42332E+02       0.00000E+00      -8.94075E+02       0.00000E+00       0.00000E+00      -3.59798E+01       0.00000E+00       0.00000E+00       0.00000E+00       1.00856E+03       0.00000E+00       0.00000E+00       8.48193E+02       0.00000E+00      -6.37687E-09
       4794   0.59925E+02      -9.73653E+02       0.00000E+00       0.00000E+00       0.00000E+00       9.42080E+02       0.00000E+00      -9.73547E+02       0.00000E+00      -9.42933E+02       0.00000E+00       0.00000E+00      -3.59975E+01       0.00000E+00       0.00000E+00       0.00000E+00       9.83040E+02       0.00000E+00       0.00000E+00       9.69387E+02       0.00000E+00      -6.55176E-09
       4795   0.59938E+02      -9.90433E+02       0.00000E+00       0.00000E+00       0.00000E+00       9.36454E+02       0.00000E+00      -9.89698E+02       0.00000E+00      -9.42361E+02       0.00000E+00       0.00000E+00      -3.59799E+01       0.00000E+00       0.00000E+00       0.00000E+00       9.52283E+02       0.00000E+00       0.00000E+00       7.91033E+02       0.00000E+00      -6.69913E-09
       4796   0.59950E+02      -1.01333E+03       0.00000E+00       0.00000E+00       0.00000E+00       9.83040E+02       0.00000E+00      -1.01312E+03       0.00000E+00      -9.83040E+02       0.00000E+00       0.00000E+00      -3.59975E+01       0.00000E+00       0.00000E+00       0.00000E+00       9.35253E+02       0.00000E+00       0.00000E+00       9.28427E+02       0.00000E+00      -6.82223E-09
       4797   0.59963E+02      -1.02244E+03       0.00000E+00       0.00000E+00       0.00000E+00       9.69001E+02       0.00000E+00      -1.02169E+03       0.00000E+00      -9.74986E+02       0.00000E+00       0.00000E+00      -3.59799E+01       0.00000E+00       0.00000E+00       0.00000E+00       9.14989E+02       0.00000E+00       0.00000E+00       7.53499E+02       0.00000E+00      -6.91680E-09
       4798   0.59975E+02      -1.03723E+03       0.00000E+00       0.00000E+00       0.00000E+00       1.00523E+03       0.00000E+00      -1.03723E+03       0.00000E+00      -1.00779E+03       0.00000E+00       0.00000E+00      -3.59975E+01       0.00000E+00       0.00000E+00       0.00000E+00       9.07947E+02       0.00000E+00       0.00000E+00       9.07947E+02       0.00000E+00      -6.98620E-09
       4799   0.59988E+02      -1.03856E+03       0.00000E+00       0.00000E+00       0.00000E+00       9.85369E+02       0.00000E+00      -1.03781E+03       0.00000E+00      -9.91438E+02       0.00000E+00       0.00000E+00      -3.59799E+01       0.00000E+00       0.00000E+00       0.00000E+00       8.96936E+02       0.00000E+00       0.00000E+00       7.35736E+02       0.00000E+00      -7.02649E-09
       4800   0.60000E+02      -1.04555E+03       0.00000E+00       0.00000E+00       0.00000E+00       1.01547E+03       0.00000E+00      -1.04533E+03       0.00000E+00      -1.01547E+03       0.00000E+00       0.00000E+00      -3.59975E+01       0.00000E+00       0.00000E+00       0.00000E+00       8.87467E+02       0.00000E+00       0.00000E+00       8.87467E+02       0.00000E+00      -7.04121E-09

This summary file was closed on 11-Jan-2021 at 21:06:22.

