
**************************************************************************************************
OpenFAST

Copyright (C) 2021 National Renewable Energy Laboratory
Copyright (C) 2021 Envision Energy USA LTD

This program is licensed under Apache License Version 2.0 and comes with ABSOLUTELY NO WARRANTY.
See the "LICENSE" file distributed with this software for details.
**************************************************************************************************

OpenFAST-v2.4.0-137-gb5d9a13c
Compile Info:
 - Compiler: Intel(R) Fortran Intel(R) 64 Compiler Classic for applications running on Intel(R)
 64, Version 2021.1 Build 20201112_000000
 - Architecture: 64 bit
 - Precision: double
 - Date: Jan 11 2021
 - Time: 20:21:29
Execution Info:
 - Date: 01/11/2021
 - Time: 20:49:16-0600

OpenFAST input file heading:
    FAST Certification Test #12: WindPACT 1.5 MW Baseline with many DOFs with VS and VP and ECD
    wind.

Running ElastoDyn.
Nodal outputs section of ElastoDyn input file not found or improperly formatted.
Running AeroDyn.
Nodal output section of AeroDyn input file not found or improperly formatted.
Warning: Turning off Unsteady Aerodynamics because C_nalpha is 0. (node 1, blade 1)
Warning: Turning off Unsteady Aerodynamics because C_nalpha is 0. (node 2, blade 1)
Warning: Turning off Unsteady Aerodynamics because C_nalpha is 0. (node 1, blade 2)
Warning: Turning off Unsteady Aerodynamics because C_nalpha is 0. (node 2, blade 2)
Warning: Turning off Unsteady Aerodynamics because C_nalpha is 0. (node 1, blade 3)
Warning: Turning off Unsteady Aerodynamics because C_nalpha is 0. (node 2, blade 3)
Running InflowWind.
Running ServoDyn.

FAST_InitializeAll: IfW_Init:IfW_UniformWind_Init: Could not read upflow column in uniform wind
files. Assuming upflow is 0.

 Time: 0 of 20 seconds.                                                                                                   Time: 1 of 20 seconds.  Estimated final completion at 20:49:32.                                                                                                   Time: 2 of 20 seconds.  Estimated final completion at 20:49:31.                                                                                                   Time: 3 of 20 seconds.  Estimated final completion at 20:49:31.                                                                                                   Time: 4 of 20 seconds.  Estimated final completion at 20:49:31.

***********************************************
Running with control option using data from:
 Speed controller for ADAMS WindPACT 15A1001 model April, 2002.
***********************************************
                                                                                                   Time: 5 of 20 seconds.  Estimated final completion at 20:49:31.                                                                                                   Time: 6 of 20 seconds.  Estimated final completion at 20:49:32.                                                                                                   Time: 7 of 20 seconds.  Estimated final completion at 20:49:30.                                                                                                   Time: 8 of 20 seconds.  Estimated final completion at 20:49:30.                                                                                                   Time: 9 of 20 seconds.  Estimated final completion at 20:49:30.                                                                                                   Time: 10 of 20 seconds.  Estimated final completion at 20:49:31.
Warning: Turning off Unsteady Aerodynamics due to high angle of attack (45.107 deg). (node 3,
blade 2)                                                                                                   Time: 11 of 20 seconds.  Estimated final completion at 20:49:31.
Warning: Turning off Unsteady Aerodynamics due to high angle of attack (45.243 deg). (node 3,
blade 1)
Warning: Turning off Unsteady Aerodynamics due to high angle of attack (45.102 deg). (node 3,
blade 3)                                                                                                   Time: 12 of 20 seconds.  Estimated final completion at 20:49:31.
Warning: Turning off Unsteady Aerodynamics due to high angle of attack (45.127 deg). (node 4,
blade 3)
Warning: Turning off Unsteady Aerodynamics due to high angle of attack (45.397 deg). (node 4,
blade 2)                                                                                                   Time: 13 of 20 seconds.  Estimated final completion at 20:49:31.
Warning: Turning off Unsteady Aerodynamics due to high angle of attack (45.227 deg). (node 5,
blade 2)
Warning: Turning off Unsteady Aerodynamics due to high angle of attack (45.772 deg). (node 4,
blade 1)
Warning: Turning off Unsteady Aerodynamics due to high angle of attack (45.419 deg). (node 5,
blade 1)                                                                                                   Time: 14 of 20 seconds.  Estimated final completion at 20:49:31.
Warning: Turning off Unsteady Aerodynamics due to high angle of attack (45.142 deg). (node 6,
blade 1)
Warning: Turning off Unsteady Aerodynamics due to high angle of attack (45.248 deg). (node 5,
blade 3)
Warning: Turning off Unsteady Aerodynamics due to high angle of attack (45.339 deg). (node 6,
blade 3)                                                                                                   Time: 15 of 20 seconds.  Estimated final completion at 20:49:31.
Warning: Turning off Unsteady Aerodynamics due to high angle of attack (45.047 deg). (node 6,
blade 2)                                                                                                   Time: 16 of 20 seconds.  Estimated final completion at 20:49:31.
Warning: Turning off Unsteady Aerodynamics due to high angle of attack (45.283 deg). (node 7,
blade 2)                                                                                                   Time: 17 of 20 seconds.  Estimated final completion at 20:49:31.
Warning: Turning off Unsteady Aerodynamics due to high angle of attack (45.202 deg). (node 7,
blade 1)                                                                                                   Time: 18 of 20 seconds.  Estimated final completion at 20:49:31.
Warning: Turning off Unsteady Aerodynamics due to high angle of attack (45.216 deg). (node 7,
blade 3)                                                                                                   Time: 19 of 20 seconds.  Estimated final completion at 20:49:31.                                                                                                   Time: 20 of 20 seconds.  Estimated final completion at 20:49:31.                                                                                                  

 Total Real Time:       14.548 seconds
 Total CPU Time:        14.375 seconds
 Simulation CPU Time:   14.312 seconds
 Simulated Time:        20 seconds
 Time Ratio (Sim/CPU):  1.3974

 OpenFAST terminated normally.

