
**************************************************************************************************
OpenFAST

Copyright (C) 2021 National Renewable Energy Laboratory
Copyright (C) 2021 Envision Energy USA LTD

This program is licensed under Apache License Version 2.0 and comes with ABSOLUTELY NO WARRANTY.
See the "LICENSE" file distributed with this software for details.
**************************************************************************************************

OpenFAST--128-NOTFOUND
Compile Info:
 - Compiler: Intel(R) Fortran Intel(R) 64 Compiler Classic for applications running on Intel(R)
 64, Version 2021.1 Build 20201112_000000
 - Architecture: 64 bit
 - Precision: double
 - Date: Mar 08 2021
 - Time: 14:29:07
Execution Info:
 - Date: 03/08/2021
 - Time: 15:02:08-0600

OpenFAST input file heading:
    FAST Certification Test #12: WindPACT 1.5 MW Baseline with many DOFs with VS and VP and ECD
    wind.

Running ElastoDyn.
Nodal outputs section of ElastoDyn input file not found or improperly formatted.
Running AeroDyn.
AD15 Nodal Outputs: Nodal output section of AeroDyn input file not found or improperly formatted.
Skipping nodal outputs.
Warning: Turning off Unsteady Aerodynamics because C_nalpha is 0. (node 1, blade 1)
Warning: Turning off Unsteady Aerodynamics because C_nalpha is 0. (node 2, blade 1)
Warning: Turning off Unsteady Aerodynamics because C_nalpha is 0. (node 1, blade 2)
Warning: Turning off Unsteady Aerodynamics because C_nalpha is 0. (node 2, blade 2)
Warning: Turning off Unsteady Aerodynamics because C_nalpha is 0. (node 1, blade 3)
Warning: Turning off Unsteady Aerodynamics because C_nalpha is 0. (node 2, blade 3)
Running InflowWind.
Running ServoDyn.

FAST_InitializeAll: IfW_Init:IfW_UniformWind_Init: Could not read upflow column in uniform wind
files. Assuming upflow is 0.

 Time: 0 of 20 seconds.                                                                                                   Time: 1 of 20 seconds.  Estimated final completion at 15:02:31.                                                                                                   Time: 2 of 20 seconds.  Estimated final completion at 15:02:29.                                                                                                   Time: 3 of 20 seconds.  Estimated final completion at 15:02:29.                                                                                                   Time: 4 of 20 seconds.  Estimated final completion at 15:02:29.

***********************************************
Running with control option using data from:
 Speed controller for ADAMS WindPACT 15A1001 model April, 2002.
***********************************************
                                                                                                   Time: 5 of 20 seconds.  Estimated final completion at 15:02:29.                                                                                                   Time: 6 of 20 seconds.  Estimated final completion at 15:02:29.                                                                                                   Time: 7 of 20 seconds.  Estimated final completion at 15:02:29.                                                                                                   Time: 8 of 20 seconds.  Estimated final completion at 15:02:29.                                                                                                   Time: 9 of 20 seconds.  Estimated final completion at 15:02:30.

FAST_Solution:CalcOutputs_And_SolveForInputs:SolveOption2:AD_CalcOutput:BEMT_CalcOutput(node 3,
blade 3):UA_CalcOutput:UA_BlendSteady:Temporarily turning off UA due to high angle of attack or
low relative velocity. This warning will not be repeated though the condition may persist.
                                                                                                   Time: 10 of 20 seconds.  Estimated final completion at 15:02:30.                                                                                                   Time: 11 of 20 seconds.  Estimated final completion at 15:02:30.                                                                                                   Time: 12 of 20 seconds.  Estimated final completion at 15:02:30.                                                                                                   Time: 13 of 20 seconds.  Estimated final completion at 15:02:30.                                                                                                   Time: 14 of 20 seconds.  Estimated final completion at 15:02:30.                                                                                                   Time: 15 of 20 seconds.  Estimated final completion at 15:02:30.                                                                                                   Time: 16 of 20 seconds.  Estimated final completion at 15:02:30.                                                                                                   Time: 17 of 20 seconds.  Estimated final completion at 15:02:30.                                                                                                   Time: 18 of 20 seconds.  Estimated final completion at 15:02:30.                                                                                                   Time: 19 of 20 seconds.  Estimated final completion at 15:02:30.                                                                                                   Time: 20 of 20 seconds.  Estimated final completion at 15:02:30.                                                                                                  

 Total Real Time:       20.984 seconds
 Total CPU Time:        20.406 seconds
 Simulation CPU Time:   20.344 seconds
 Simulated Time:        20 seconds
 Time Ratio (Sim/CPU):  0.9831

 OpenFAST terminated normally.

