
**************************************************************************************************
OpenFAST

Copyright (C) 2020 National Renewable Energy Laboratory
Copyright (C) 2020 Envision Energy USA LTD

This program is licensed under Apache License Version 2.0 and comes with ABSOLUTELY NO WARRANTY.
See the "LICENSE" file distributed with this software for details.
**************************************************************************************************

OpenFAST--128-NOTFOUND
Compile Info:
 - Compiler: Intel(R) Visual Fortran Intel(R) 64 Compiler for applications running on Intel(R)
 64, Version 19.0.5.281 Build 20190815
 - Architecture: 64 bit
 - Precision: double
 - Date: Nov 06 2020
 - Time: 13:50:38
Execution Info:
 - Date: 11/06/2020
 - Time: 16:22:24-0600

OpenFAST input file heading:
    FAST Certification Test #12: WindPACT 1.5 MW Baseline with many DOFs with VS and VP and ECD
    wind.

Running ElastoDyn.
Nodal outputs section of ElastoDyn input file not found or improperly formatted.
Running AeroDyn.
Nodal output section of AeroDyn input file not found or improperly formatted.
Warning: Turning off Unsteady Aerodynamics because C_nalpha is 0. (node 1, blade 1)
Warning: Turning off Unsteady Aerodynamics because C_nalpha is 0. (node 2, blade 1)
Warning: Turning off Unsteady Aerodynamics because C_nalpha is 0. (node 1, blade 2)
Warning: Turning off Unsteady Aerodynamics because C_nalpha is 0. (node 2, blade 2)
Warning: Turning off Unsteady Aerodynamics because C_nalpha is 0. (node 1, blade 3)
Warning: Turning off Unsteady Aerodynamics because C_nalpha is 0. (node 2, blade 3)
Running InflowWind.
Running ServoDyn.
 Time: 0 of 20 seconds.                                                                                                   Time: 1 of 20 seconds.  Estimated final completion at 16:22:42.                                                                                                   Time: 2 of 20 seconds.  Estimated final completion at 16:22:41.                                                                                                   Time: 3 of 20 seconds.  Estimated final completion at 16:22:42.                                                                                                   Time: 4 of 20 seconds.  Estimated final completion at 16:22:42.

***********************************************
Running with control option using data from:
 Speed controller for ADAMS WindPACT 15A1001 model April, 2002.
***********************************************
                                                                                                   Time: 5 of 20 seconds.  Estimated final completion at 16:22:41.                                                                                                   Time: 6 of 20 seconds.  Estimated final completion at 16:22:41.                                                                                                   Time: 7 of 20 seconds.  Estimated final completion at 16:22:41.                                                                                                   Time: 8 of 20 seconds.  Estimated final completion at 16:22:41.                                                                                                   Time: 9 of 20 seconds.  Estimated final completion at 16:22:41.                                                                                                   Time: 10 of 20 seconds.  Estimated final completion at 16:22:41.
Warning: Turning off Unsteady Aerodynamics due to high angle of attack (45.107 deg). (node 3,
blade 2)                                                                                                   Time: 11 of 20 seconds.  Estimated final completion at 16:22:41.
Warning: Turning off Unsteady Aerodynamics due to high angle of attack (45.243 deg). (node 3,
blade 1)
Warning: Turning off Unsteady Aerodynamics due to high angle of attack (45.102 deg). (node 3,
blade 3)                                                                                                   Time: 12 of 20 seconds.  Estimated final completion at 16:22:41.
Warning: Turning off Unsteady Aerodynamics due to high angle of attack (45.127 deg). (node 4,
blade 3)
Warning: Turning off Unsteady Aerodynamics due to high angle of attack (45.397 deg). (node 4,
blade 2)                                                                                                   Time: 13 of 20 seconds.  Estimated final completion at 16:22:41.
Warning: Turning off Unsteady Aerodynamics due to high angle of attack (45.227 deg). (node 5,
blade 2)
Warning: Turning off Unsteady Aerodynamics due to high angle of attack (45.772 deg). (node 4,
blade 1)
Warning: Turning off Unsteady Aerodynamics due to high angle of attack (45.419 deg). (node 5,
blade 1)                                                                                                   Time: 14 of 20 seconds.  Estimated final completion at 16:22:41.
Warning: Turning off Unsteady Aerodynamics due to high angle of attack (45.142 deg). (node 6,
blade 1)
Warning: Turning off Unsteady Aerodynamics due to high angle of attack (45.248 deg). (node 5,
blade 3)
Warning: Turning off Unsteady Aerodynamics due to high angle of attack (45.339 deg). (node 6,
blade 3)                                                                                                   Time: 15 of 20 seconds.  Estimated final completion at 16:22:41.
Warning: Turning off Unsteady Aerodynamics due to high angle of attack (45.047 deg). (node 6,
blade 2)                                                                                                   Time: 16 of 20 seconds.  Estimated final completion at 16:22:41.
Warning: Turning off Unsteady Aerodynamics due to high angle of attack (45.283 deg). (node 7,
blade 2)                                                                                                   Time: 17 of 20 seconds.  Estimated final completion at 16:22:41.
Warning: Turning off Unsteady Aerodynamics due to high angle of attack (45.202 deg). (node 7,
blade 1)                                                                                                   Time: 18 of 20 seconds.  Estimated final completion at 16:22:41.
Warning: Turning off Unsteady Aerodynamics due to high angle of attack (45.216 deg). (node 7,
blade 3)                                                                                                   Time: 19 of 20 seconds.  Estimated final completion at 16:22:41.                                                                                                   Time: 20 of 20 seconds.  Estimated final completion at 16:22:41.                                                                                                  

 Total Real Time:       16.472 seconds
 Total CPU Time:        16.156 seconds
 Simulation CPU Time:   16.109 seconds
 Simulated Time:        20 seconds
 Time Ratio (Sim/CPU):  1.2415

 OpenFAST terminated normally.

