
This file was generated by AeroDyn14 (v14.05.00a-bjj, 11-Apr-2016) on 13-Apr-2016 at 00:25:34.




Time	VX21	VY21	VZ21	Alpha16	DynPres16	CLift16	CDrag16	CNorm16	CTang16	CMomt16	Pitch16	AxInd16	TanInd16	ForcN16	ForcT16	Pmomt16	ReNum16
(sec)	 (m/sec)	 (m/sec)	 (m/sec)	(deg)	(Pa)	(-)	(-)	(-)	(-)	(-)	(deg)	(-)	(-)	(N)	(N)	(N-m)	(x10^6)
     0.000	 5.00000E+00	 0.00000E+00	 0.00000E+00	 4.93871E+00	 5.87246E+02	 7.58894E-01	 1.45751E-02	 7.57332E-01	 5.08123E-02	-5.00530E-02	 4.43400E+00	 0.00000E+00	 0.00000E+00	 4.05586E+01	 5.89694E+00	-1.23512E+00	 9.58453E-01
     0.004	 5.00000E+00	 0.00000E+00	 0.00000E+00	 2.72537E+00	 5.85846E+02	 4.97185E-01	 1.39005E-02	 4.97284E-01	 9.75580E-03	-4.46080E-02	 4.43400E+00	 2.35638E-01	 4.42904E-03	 2.66667E+01	 2.59491E+00	-1.09814E+00	 9.57310E-01
     0.008	 5.00000E+00	 0.00000E+00	 0.00000E+00	 2.66426E+00	 5.85875E+02	 4.90201E-01	 1.38190E-02	 4.90313E-01	 8.98209E-03	-4.44625E-02	 4.43400E+00	 2.42110E-01	 4.58771E-03	 2.62968E+01	 2.52445E+00	-1.09461E+00	 9.57333E-01
     0.012	 5.00000E+00	 0.00000E+00	 0.00000E+00	 2.71563E+00	 5.85851E+02	 4.96072E-01	 1.38875E-02	 4.96172E-01	 9.63141E-03	-4.45848E-02	 4.43400E+00	 2.36670E-01	 4.45443E-03	 2.66077E+01	 2.58362E+00	-1.09758E+00	 9.57314E-01
     0.016	 5.00000E+00	 0.00000E+00	 0.00000E+00	 2.67253E+00	 5.85871E+02	 4.91147E-01	 1.38300E-02	 4.91257E-01	 9.08598E-03	-4.44822E-02	 4.43400E+00	 2.41234E-01	 4.56619E-03	 2.63469E+01	 2.53394E+00	-1.09509E+00	 9.57330E-01
     0.020	 5.00000E+00	 0.00000E+00	 0.00000E+00	 2.70874E+00	 5.85854E+02	 4.95285E-01	 1.38783E-02	 4.95387E-01	 9.54379E-03	-4.45684E-02	 4.43400E+00	 2.37399E-01	 4.47226E-03	 2.65661E+01	 2.57566E+00	-1.09718E+00	 9.57316E-01
     0.024	 5.00000E+00	 0.00000E+00	 0.00000E+00	 2.67836E+00	 5.85868E+02	 4.91812E-01	 1.38378E-02	 4.91922E-01	 9.15928E-03	-4.44961E-02	 4.43400E+00	 2.40617E-01	 4.55111E-03	 2.63822E+01	 2.54064E+00	-1.09542E+00	 9.57328E-01
     0.028	 5.00000E+00	 0.00000E+00	 0.00000E+00	 2.70388E+00	 5.85856E+02	 4.94729E-01	 1.38718E-02	 4.94833E-01	 9.48204E-03	-4.45569E-02	 4.43400E+00	 2.37914E-01	 4.48483E-03	 2.65367E+01	 2.57004E+00	-1.09690E+00	 9.57318E-01
     0.032	 5.00000E+00	 0.00000E+00	 0.00000E+00	 2.68246E+00	 5.85866E+02	 4.92281E-01	 1.38433E-02	 4.92390E-01	 9.21099E-03	-4.45059E-02	 4.43400E+00	 2.40182E-01	 4.54044E-03	 2.64070E+01	 2.54535E+00	-1.09566E+00	 9.57326E-01
     0.036	 5.00000E+00	 0.00000E+00	 0.00000E+00	 2.70045E+00	 5.85858E+02	 4.94338E-01	 1.38673E-02	 4.94442E-01	 9.43854E-03	-4.45487E-02	 4.43400E+00	 2.38277E-01	 4.49371E-03	 2.65159E+01	 2.56608E+00	-1.09670E+00	 9.57319E-01
     0.040	 5.00000E+00	 0.00000E+00	 0.00000E+00	 2.68535E+00	 5.85865E+02	 4.92612E-01	 1.38471E-02	 4.92719E-01	 9.24745E-03	-4.45127E-02	 4.43400E+00	 2.39876E-01	 4.53293E-03	 2.64245E+01	 2.54868E+00	-1.09583E+00	 9.57325E-01
     0.044	 5.00000E+00	 0.00000E+00	 0.00000E+00	 2.69804E+00	 5.85859E+02	 4.94061E-01	 1.38640E-02	 4.94166E-01	 9.40787E-03	-4.45429E-02	 4.43400E+00	 2.38533E-01	 4.49997E-03	 2.65013E+01	 2.56329E+00	-1.09656E+00	 9.57320E-01
     0.048	 5.00000E+00	 0.00000E+00	 0.00000E+00	 2.68739E+00	 5.85864E+02	 4.92844E-01	 1.38499E-02	 4.92952E-01	 9.27317E-03	-4.45176E-02	 4.43400E+00	 2.39661E-01	 4.52763E-03	 2.64368E+01	 2.55102E+00	-1.09594E+00	 9.57324E-01
     0.052	 5.00000E+00	 0.00000E+00	 0.00000E+00	 2.69633E+00	 5.85860E+02	 4.93866E-01	 1.38618E-02	 4.93972E-01	 9.38626E-03	-4.45389E-02	 4.43400E+00	 2.38714E-01	 4.50444E-03	 2.64910E+01	 2.56133E+00	-1.09646E+00	 9.57321E-01
     0.056	 5.00000E+00	 0.00000E+00	 0.00000E+00	 2.68882E+00	 5.85864E+02	 4.93008E-01	 1.38518E-02	 4.93115E-01	 9.29127E-03	-4.45210E-02	 4.43400E+00	 2.39509E-01	 4.52393E-03	 2.64455E+01	 2.55268E+00	-1.09603E+00	 9.57324E-01
     0.060	 5.00000E+00	 0.00000E+00	 0.00000E+00	 2.69513E+00	 5.85860E+02	 4.93729E-01	 1.38602E-02	 4.93834E-01	 9.37101E-03	-4.45360E-02	 4.43400E+00	 2.38841E-01	 4.50754E-03	 2.64837E+01	 2.55994E+00	-1.09639E+00	 9.57321E-01
     0.064	 5.00000E+00	 0.00000E+00	 0.00000E+00	 2.68983E+00	 5.85863E+02	 4.93124E-01	 1.38531E-02	 4.93231E-01	 9.30408E-03	-4.45234E-02	 4.43400E+00	 2.39401E-01	 4.52131E-03	 2.64517E+01	 2.55384E+00	-1.09609E+00	 9.57323E-01
     0.068	 5.00000E+00	 0.00000E+00	 0.00000E+00	 2.69428E+00	 5.85861E+02	 4.93632E-01	 1.38590E-02	 4.93738E-01	 9.36028E-03	-4.45340E-02	 4.43400E+00	 2.38931E-01	 4.50975E-03	 2.64785E+01	 2.55896E+00	-1.09634E+00	 9.57322E-01
     0.072	 5.00000E+00	 0.00000E+00	 0.00000E+00	 2.69055E+00	 5.85862E+02	 4.93205E-01	 1.38541E-02	 4.93312E-01	 9.31309E-03	-4.45251E-02	 4.43400E+00	 2.39326E-01	 4.51940E-03	 2.64560E+01	 2.55466E+00	-1.09613E+00	 9.57323E-01
     0.076	 5.00000E+00	 0.00000E+00	 0.00000E+00	 2.69368E+00	 5.85861E+02	 4.93563E-01	 1.38582E-02	 4.93669E-01	 9.35270E-03	-4.45326E-02	 4.43400E+00	 2.38994E-01	 4.51130E-03	 2.64749E+01	 2.55827E+00	-1.09631E+00	 9.57322E-01
     0.080	 5.00000E+00	 0.00000E+00	 0.00000E+00	 2.69105E+00	 5.85862E+02	 4.93263E-01	 1.38547E-02	 4.93369E-01	 9.31945E-03	-4.45263E-02	 4.43400E+00	 2.39273E-01	 4.51815E-03	 2.64590E+01	 2.55524E+00	-1.09616E+00	 9.57323E-01
     0.084	 5.00000E+00	 0.00000E+00	 0.00000E+00	 2.69326E+00	 5.85861E+02	 4.93515E-01	 1.38577E-02	 4.93621E-01	 9.34738E-03	-4.45316E-02	 4.43400E+00	 2.39039E-01	 4.51237E-03	 2.64724E+01	 2.55779E+00	-1.09628E+00	 9.57322E-01
     0.088	 5.00000E+00	 0.00000E+00	 0.00000E+00	 2.69140E+00	 5.85862E+02	 4.93303E-01	 1.38552E-02	 4.93410E-01	 9.32391E-03	-4.45272E-02	 4.43400E+00	 2.39235E-01	 4.51720E-03	 2.64611E+01	 2.55565E+00	-1.09618E+00	 9.57323E-01
     0.092	 5.00000E+00	 0.00000E+00	 0.00000E+00	 2.69296E+00	 5.85861E+02	 4.93481E-01	 1.38573E-02	 4.93588E-01	 9.34363E-03	-4.45309E-02	 4.43400E+00	 2.39070E-01	 4.51314E-03	 2.64706E+01	 2.55744E+00	-1.09627E+00	 9.57322E-01
     0.096	 5.00000E+00	 0.00000E+00	 0.00000E+00	 2.69165E+00	 5.85862E+02	 4.93332E-01	 1.38555E-02	 4.93438E-01	 9.32705E-03	-4.45277E-02	 4.43400E+00	 2.39209E-01	 4.51654E-03	 2.64627E+01	 2.55593E+00	-1.09619E+00	 9.57323E-01
     0.100	 5.00000E+00	 0.00000E+00	 0.00000E+00	 2.69275E+00	 5.85862E+02	 4.93457E-01	 1.38570E-02	 4.93564E-01	 9.34097E-03	-4.45304E-02	 4.43400E+00	 2.39092E-01	 4.51368E-03	 2.64693E+01	 2.55720E+00	-1.09625E+00	 9.57322E-01
     0.104	 5.00000E+00	 0.00000E+00	 0.00000E+00	 2.69183E+00	 5.85862E+02	 4.93352E-01	 1.38558E-02	 4.93458E-01	 9.32929E-03	-4.45282E-02	 4.43400E+00	 2.39190E-01	 4.51612E-03	 2.64637E+01	 2.55614E+00	-1.09620E+00	 9.57323E-01
     0.108	 5.00000E+00	 0.00000E+00	 0.00000E+00	 2.69260E+00	 5.85862E+02	 4.93441E-01	 1.38568E-02	 4.93547E-01	 9.33911E-03	-4.45300E-02	 4.43400E+00	 2.39108E-01	 4.51410E-03	 2.64684E+01	 2.55703E+00	-1.09625E+00	 9.57322E-01
     0.112	 5.00000E+00	 0.00000E+00	 0.00000E+00	 2.69195E+00	 5.85862E+02	 4.93366E-01	 1.38559E-02	 4.93472E-01	 9.33086E-03	-4.45285E-02	 4.43400E+00	 2.39177E-01	 4.51577E-03	 2.64645E+01	 2.55628E+00	-1.09621E+00	 9.57323E-01
     0.116	 5.00000E+00	 0.00000E+00	 0.00000E+00	 2.69250E+00	 5.85862E+02	 4.93429E-01	 1.38567E-02	 4.93535E-01	 9.33780E-03	-4.45298E-02	 4.43400E+00	 2.39119E-01	 4.51434E-03	 2.64678E+01	 2.55691E+00	-1.09624E+00	 9.57322E-01
     0.120	 5.00000E+00	 0.00000E+00	 0.00000E+00	 2.69204E+00	 5.85862E+02	 4.93376E-01	 1.38561E-02	 4.93482E-01	 9.33197E-03	-4.45287E-02	 4.43400E+00	 2.39168E-01	 4.51553E-03	 2.64650E+01	 2.55638E+00	-1.09621E+00	 9.57323E-01
     0.124	 5.00000E+00	 0.00000E+00	 0.00000E+00	 2.69243E+00	 5.85862E+02	 4.93420E-01	 1.38566E-02	 4.93527E-01	 9.33686E-03	-4.45296E-02	 4.43400E+00	 2.39127E-01	 4.51458E-03	 2.64673E+01	 2.55683E+00	-1.09624E+00	 9.57322E-01
     0.128	 5.00000E+00	 0.00000E+00	 0.00000E+00	 2.69210E+00	 5.85862E+02	 4.93383E-01	 1.38561E-02	 4.93489E-01	 9.33274E-03	-4.45288E-02	 4.43400E+00	 2.39161E-01	 4.51541E-03	 2.64654E+01	 2.55645E+00	-1.09622E+00	 9.57323E-01
     0.132	 5.00000E+00	 0.00000E+00	 0.00000E+00	 2.69237E+00	 5.85862E+02	 4.93414E-01	 1.38565E-02	 4.93521E-01	 9.33620E-03	-4.45295E-02	 4.43400E+00	 2.39132E-01	 4.51469E-03	 2.64670E+01	 2.55677E+00	-1.09623E+00	 9.57322E-01
     0.136	 5.00000E+00	 0.00000E+00	 0.00000E+00	 2.69215E+00	 5.85862E+02	 4.93388E-01	 1.38562E-02	 4.93494E-01	 9.33331E-03	-4.45289E-02	 4.43400E+00	 2.39157E-01	 4.51529E-03	 2.64656E+01	 2.55650E+00	-1.09622E+00	 9.57323E-01
     0.140	 5.00000E+00	 0.00000E+00	 0.00000E+00	 2.69234E+00	 5.85862E+02	 4.93410E-01	 1.38565E-02	 4.93516E-01	 9.33573E-03	-4.45294E-02	 4.43400E+00	 2.39136E-01	 4.51481E-03	 2.64668E+01	 2.55673E+00	-1.09623E+00	 9.57323E-01
     0.144	 5.00000E+00	 0.00000E+00	 0.00000E+00	 2.69218E+00	 5.85862E+02	 4.93392E-01	 1.38562E-02	 4.93498E-01	 9.33370E-03	-4.45290E-02	 4.43400E+00	 2.39153E-01	 4.51517E-03	 2.64658E+01	 2.55654E+00	-1.09622E+00	 9.57323E-01
     0.148	 5.00000E+00	 0.00000E+00	 0.00000E+00	 2.69231E+00	 5.85862E+02	 4.93407E-01	 1.38564E-02	 4.93513E-01	 9.33541E-03	-4.45293E-02	 4.43400E+00	 2.39139E-01	 4.51487E-03	 2.64667E+01	 2.55670E+00	-1.09623E+00	 9.57323E-01
     0.152	 5.00000E+00	 0.00000E+00	 0.00000E+00	 2.69220E+00	 5.85862E+02	 4.93394E-01	 1.38563E-02	 4.93500E-01	 9.33397E-03	-4.45290E-02	 4.43400E+00	 2.39151E-01	 4.51511E-03	 2.64660E+01	 2.55656E+00	-1.09622E+00	 9.57323E-01
     0.156	 5.00000E+00	 0.00000E+00	 0.00000E+00	 2.69229E+00	 5.85862E+02	 4.93405E-01	 1.38564E-02	 4.93511E-01	 9.33518E-03	-4.45293E-02	 4.43400E+00	 2.39141E-01	 4.51493E-03	 2.64665E+01	 2.55667E+00	-1.09623E+00	 9.57323E-01
     0.160	 5.00000E+00	 0.00000E+00	 0.00000E+00	 2.69221E+00	 5.85862E+02	 4.93396E-01	 1.38563E-02	 4.93502E-01	 9.33416E-03	-4.45291E-02	 4.43400E+00	 2.39149E-01	 4.51511E-03	 2.64661E+01	 2.55658E+00	-1.09622E+00	 9.57323E-01
     0.164	 5.00000E+00	 0.00000E+00	 0.00000E+00	 2.69228E+00	 5.85862E+02	 4.93404E-01	 1.38564E-02	 4.93510E-01	 9.33501E-03	-4.45292E-02	 4.43400E+00	 2.39142E-01	 4.51493E-03	 2.64665E+01	 2.55666E+00	-1.09623E+00	 9.57323E-01
     0.168	 5.00000E+00	 0.00000E+00	 0.00000E+00	 2.69222E+00	 5.85862E+02	 4.93397E-01	 1.38563E-02	 4.93503E-01	 9.33430E-03	-4.45291E-02	 4.43400E+00	 2.39148E-01	 4.51505E-03	 2.64661E+01	 2.55660E+00	-1.09622E+00	 9.57323E-01
     0.172	 5.00000E+00	 0.00000E+00	 0.00000E+00	 2.69227E+00	 5.85862E+02	 4.93403E-01	 1.38564E-02	 4.93509E-01	 9.33490E-03	-4.45292E-02	 4.43400E+00	 2.39143E-01	 4.51493E-03	 2.64664E+01	 2.55665E+00	-1.09623E+00	 9.57323E-01
     0.176	 5.00000E+00	 0.00000E+00	 0.00000E+00	 2.69223E+00	 5.85862E+02	 4.93398E-01	 1.38563E-02	 4.93504E-01	 9.33440E-03	-4.45291E-02	 4.43400E+00	 2.39147E-01	 4.51505E-03	 2.64662E+01	 2.55660E+00	-1.09622E+00	 9.57323E-01
     0.180	 5.00000E+00	 0.00000E+00	 0.00000E+00	 2.69227E+00	 5.85862E+02	 4.93402E-01	 1.38564E-02	 4.93508E-01	 9.33482E-03	-4.45292E-02	 4.43400E+00	 2.39144E-01	 4.51493E-03	 2.64664E+01	 2.55664E+00	-1.09623E+00	 9.57323E-01
     0.184	 5.00000E+00	 0.00000E+00	 0.00000E+00	 2.69224E+00	 5.85862E+02	 4.93398E-01	 1.38563E-02	 4.93505E-01	 9.33445E-03	-4.45291E-02	 4.43400E+00	 2.39147E-01	 4.51505E-03	 2.64662E+01	 2.55661E+00	-1.09623E+00	 9.57323E-01
     0.188	 5.00000E+00	 0.00000E+00	 0.00000E+00	 2.69226E+00	 5.85862E+02	 4.93401E-01	 1.38563E-02	 4.93508E-01	 9.33477E-03	-4.45292E-02	 4.43400E+00	 2.39144E-01	 4.51499E-03	 2.64663E+01	 2.55664E+00	-1.09623E+00	 9.57322E-01
     0.192	 5.00000E+00	 0.00000E+00	 0.00000E+00	 2.69224E+00	 5.85862E+02	 4.93399E-01	 1.38563E-02	 4.93505E-01	 9.33453E-03	-4.45291E-02	 4.43400E+00	 2.39146E-01	 4.51499E-03	 2.64662E+01	 2.55661E+00	-1.09623E+00	 9.57323E-01
     0.196	 5.00000E+00	 0.00000E+00	 0.00000E+00	 2.69226E+00	 5.85862E+02	 4.93401E-01	 1.38563E-02	 4.93507E-01	 9.33472E-03	-4.45292E-02	 4.43400E+00	 2.39145E-01	 4.51499E-03	 2.64663E+01	 2.55663E+00	-1.09623E+00	 9.57323E-01
     0.200	 5.00000E+00	 0.00000E+00	 0.00000E+00	 2.69224E+00	 5.85862E+02	 4.93399E-01	 1.38563E-02	 4.93506E-01	 9.33456E-03	-4.45292E-02	 4.43400E+00	 2.39146E-01	 4.51499E-03	 2.64662E+01	 2.55662E+00	-1.09623E+00	 9.57322E-01
     0.204	 5.00000E+00	 0.00000E+00	 0.00000E+00	 2.69226E+00	 5.85862E+02	 4.93401E-01	 1.38563E-02	 4.93507E-01	 9.33470E-03	-4.45292E-02	 4.43400E+00	 2.39145E-01	 4.51499E-03	 2.64663E+01	 2.55663E+00	-1.09623E+00	 9.57322E-01
     0.208	 5.00000E+00	 0.00000E+00	 0.00000E+00	 2.69225E+00	 5.85862E+02	 4.93400E-01	 1.38563E-02	 4.93506E-01	 9.33459E-03	-4.45292E-02	 4.43400E+00	 2.39146E-01	 4.51499E-03	 2.64662E+01	 2.55662E+00	-1.09623E+00	 9.57322E-01
     0.212	 5.00000E+00	 0.00000E+00	 0.00000E+00	 2.69225E+00	 5.85862E+02	 4.93401E-01	 1.38563E-02	 4.93507E-01	 9.33468E-03	-4.45292E-02	 4.43400E+00	 2.39145E-01	 4.51499E-03	 2.64663E+01	 2.55663E+00	-1.09623E+00	 9.57322E-01
     0.216	 5.00000E+00	 0.00000E+00	 0.00000E+00	 2.69225E+00	 5.85862E+02	 4.93400E-01	 1.38563E-02	 4.93506E-01	 9.33461E-03	-4.45292E-02	 4.43400E+00	 2.39146E-01	 4.51499E-03	 2.64663E+01	 2.55662E+00	-1.09623E+00	 9.57323E-01
     0.220	 5.00000E+00	 0.00000E+00	 0.00000E+00	 2.69225E+00	 5.85862E+02	 4.93400E-01	 1.38563E-02	 4.93507E-01	 9.33465E-03	-4.45292E-02	 4.43400E+00	 2.39145E-01	 4.51499E-03	 2.64663E+01	 2.55663E+00	-1.09623E+00	 9.57323E-01
     0.224	 5.00000E+00	 0.00000E+00	 0.00000E+00	 2.69225E+00	 5.85862E+02	 4.93400E-01	 1.38563E-02	 4.93506E-01	 9.33463E-03	-4.45292E-02	 4.43400E+00	 2.39146E-01	 4.51499E-03	 2.64663E+01	 2.55662E+00	-1.09623E+00	 9.57322E-01
     0.228	 5.00000E+00	 0.00000E+00	 0.00000E+00	 2.69225E+00	 5.85862E+02	 4.93400E-01	 1.38563E-02	 4.93507E-01	 9.33466E-03	-4.45292E-02	 4.43400E+00	 2.39145E-01	 4.51499E-03	 2.64663E+01	 2.55663E+00	-1.09623E+00	 9.57322E-01
     0.232	 5.00000E+00	 0.00000E+00	 0.00000E+00	 2.69225E+00	 5.85862E+02	 4.93400E-01	 1.38563E-02	 4.93506E-01	 9.33462E-03	-4.45292E-02	 4.43400E+00	 2.39146E-01	 4.51499E-03	 2.64663E+01	 2.55662E+00	-1.09623E+00	 9.57323E-01
     0.236	 5.00000E+00	 0.00000E+00	 0.00000E+00	 2.69225E+00	 5.85862E+02	 4.93400E-01	 1.38563E-02	 4.93507E-01	 9.33465E-03	-4.45292E-02	 4.43400E+00	 2.39145E-01	 4.51499E-03	 2.64663E+01	 2.55663E+00	-1.09623E+00	 9.57322E-01
     0.240	 5.00000E+00	 0.00000E+00	 0.00000E+00	 2.69225E+00	 5.85862E+02	 4.93400E-01	 1.38563E-02	 4.93506E-01	 9.33462E-03	-4.45292E-02	 4.43400E+00	 2.39146E-01	 4.51499E-03	 2.64663E+01	 2.55662E+00	-1.09623E+00	 9.57322E-01
     0.244	 5.00000E+00	 0.00000E+00	 0.00000E+00	 2.69225E+00	 5.85861E+02	 4.93400E-01	 1.38563E-02	 4.93507E-01	 9.33466E-03	-4.45292E-02	 4.43400E+00	 2.39145E-01	 4.51499E-03	 2.64663E+01	 2.55663E+00	-1.09623E+00	 9.57322E-01
     0.248	 5.00000E+00	 0.00000E+00	 0.00000E+00	 2.69225E+00	 5.85862E+02	 4.93400E-01	 1.38563E-02	 4.93506E-01	 9.33462E-03	-4.45292E-02	 4.43400E+00	 2.39146E-01	 4.51499E-03	 2.64663E+01	 2.55662E+00	-1.09623E+00	 9.57323E-01
     0.252	 5.00000E+00	 0.00000E+00	 0.00000E+00	 2.69225E+00	 5.85862E+02	 4.93400E-01	 1.38563E-02	 4.93506E-01	 9.33463E-03	-4.45292E-02	 4.43400E+00	 2.39146E-01	 4.51499E-03	 2.64663E+01	 2.55662E+00	-1.09623E+00	 9.57323E-01
     0.256	 5.00000E+00	 0.00000E+00	 0.00000E+00	 2.69225E+00	 5.85862E+02	 4.93400E-01	 1.38563E-02	 4.93506E-01	 9.33462E-03	-4.45292E-02	 4.43400E+00	 2.39146E-01	 4.51499E-03	 2.64663E+01	 2.55662E+00	-1.09623E+00	 9.57323E-01
     0.260	 5.00000E+00	 0.00000E+00	 0.00000E+00	 2.69225E+00	 5.85862E+02	 4.93400E-01	 1.38563E-02	 4.93507E-01	 9.33465E-03	-4.45292E-02	 4.43400E+00	 2.39145E-01	 4.51499E-03	 2.64663E+01	 2.55663E+00	-1.09623E+00	 9.57322E-01
     0.264	 5.00000E+00	 0.00000E+00	 0.00000E+00	 2.69225E+00	 5.85862E+02	 4.93400E-01	 1.38563E-02	 4.93506E-01	 9.33462E-03	-4.45292E-02	 4.43400E+00	 2.39146E-01	 4.51499E-03	 2.64663E+01	 2.55662E+00	-1.09623E+00	 9.57322E-01
     0.268	 5.00000E+00	 0.00000E+00	 0.00000E+00	 2.69225E+00	 5.85862E+02	 4.93400E-01	 1.38563E-02	 4.93507E-01	 9.33465E-03	-4.45292E-02	 4.43400E+00	 2.39145E-01	 4.51499E-03	 2.64663E+01	 2.55663E+00	-1.09623E+00	 9.57323E-01
     0.272	 5.00000E+00	 0.00000E+00	 0.00000E+00	 2.69225E+00	 5.85862E+02	 4.93400E-01	 1.38563E-02	 4.93506E-01	 9.33463E-03	-4.45292E-02	 4.43400E+00	 2.39146E-01	 4.51499E-03	 2.64663E+01	 2.55662E+00	-1.09623E+00	 9.57322E-01
     0.276	 5.00000E+00	 0.00000E+00	 0.00000E+00	 2.69225E+00	 5.85862E+02	 4.93400E-01	 1.38563E-02	 4.93506E-01	 9.33463E-03	-4.45292E-02	 4.43400E+00	 2.39146E-01	 4.51499E-03	 2.64663E+01	 2.55662E+00	-1.09623E+00	 9.57323E-01
     0.280	 5.00000E+00	 0.00000E+00	 0.00000E+00	 2.69225E+00	 5.85862E+02	 4.93400E-01	 1.38563E-02	 4.93506E-01	 9.33464E-03	-4.45292E-02	 4.43400E+00	 2.39145E-01	 4.51499E-03	 2.64663E+01	 2.55663E+00	-1.09623E+00	 9.57323E-01
     0.284	 5.00000E+00	 0.00000E+00	 0.00000E+00	 2.69225E+00	 5.85862E+02	 4.93400E-01	 1.38563E-02	 4.93506E-01	 9.33463E-03	-4.45292E-02	 4.43400E+00	 2.39146E-01	 4.51499E-03	 2.64663E+01	 2.55662E+00	-1.09623E+00	 9.57322E-01
     0.288	 5.00000E+00	 0.00000E+00	 0.00000E+00	 2.69225E+00	 5.85862E+02	 4.93400E-01	 1.38563E-02	 4.93507E-01	 9.33465E-03	-4.45292E-02	 4.43400E+00	 2.39145E-01	 4.51499E-03	 2.64663E+01	 2.55663E+00	-1.09623E+00	 9.57322E-01
     0.292	 5.00000E+00	 0.00000E+00	 0.00000E+00	 2.69225E+00	 5.85862E+02	 4.93400E-01	 1.38563E-02	 4.93506E-01	 9.33462E-03	-4.45292E-02	 4.43400E+00	 2.39146E-01	 4.51499E-03	 2.64663E+01	 2.55662E+00	-1.09623E+00	 9.57323E-01
     0.296	 5.00000E+00	 0.00000E+00	 0.00000E+00	 2.69225E+00	 5.85862E+02	 4.93400E-01	 1.38563E-02	 4.93507E-01	 9.33466E-03	-4.45292E-02	 4.43400E+00	 2.39145E-01	 4.51499E-03	 2.64663E+01	 2.55663E+00	-1.09623E+00	 9.57322E-01
     0.300	 5.00000E+00	 0.00000E+00	 0.00000E+00	 2.69225E+00	 5.85862E+02	 4.93400E-01	 1.38563E-02	 4.93506E-01	 9.33462E-03	-4.45292E-02	 4.43400E+00	 2.39146E-01	 4.51499E-03	 2.64663E+01	 2.55662E+00	-1.09623E+00	 9.57322E-01
     0.304	 5.00000E+00	 0.00000E+00	 0.00000E+00	 2.69225E+00	 5.85862E+02	 4.93400E-01	 1.38563E-02	 4.93507E-01	 9.33466E-03	-4.45292E-02	 4.43400E+00	 2.39145E-01	 4.51499E-03	 2.64663E+01	 2.55663E+00	-1.09623E+00	 9.57322E-01
     0.308	 5.00000E+00	 0.00000E+00	 0.00000E+00	 2.69225E+00	 5.85862E+02	 4.93400E-01	 1.38563E-02	 4.93506E-01	 9.33463E-03	-4.45292E-02	 4.43400E+00	 2.39146E-01	 4.51499E-03	 2.64663E+01	 2.55662E+00	-1.09623E+00	 9.57322E-01
     0.312	 5.00000E+00	 0.00000E+00	 0.00000E+00	 2.69225E+00	 5.85862E+02	 4.93400E-01	 1.38563E-02	 4.93507E-01	 9.33465E-03	-4.45292E-02	 4.43400E+00	 2.39145E-01	 4.51499E-03	 2.64663E+01	 2.55663E+00	-1.09623E+00	 9.57323E-01
     0.316	 5.00000E+00	 0.00000E+00	 0.00000E+00	 2.69225E+00	 5.85862E+02	 4.93400E-01	 1.38563E-02	 4.93506E-01	 9.33463E-03	-4.45292E-02	 4.43400E+00	 2.39146E-01	 4.51499E-03	 2.64663E+01	 2.55662E+00	-1.09623E+00	 9.57322E-01
     0.320	 5.00000E+00	 0.00000E+00	 0.00000E+00	 2.69225E+00	 5.85862E+02	 4.93400E-01	 1.38563E-02	 4.93507E-01	 9.33465E-03	-4.45292E-02	 4.43400E+00	 2.39145E-01	 4.51499E-03	 2.64663E+01	 2.55663E+00	-1.09623E+00	 9.57322E-01
     0.324	 5.00000E+00	 0.00000E+00	 0.00000E+00	 2.69225E+00	 5.85862E+02	 4.93400E-01	 1.38563E-02	 4.93506E-01	 9.33462E-03	-4.45292E-02	 4.43400E+00	 2.39146E-01	 4.51499E-03	 2.64663E+01	 2.55662E+00	-1.09623E+00	 9.57322E-01
     0.328	 5.00000E+00	 0.00000E+00	 0.00000E+00	 2.69225E+00	 5.85862E+02	 4.93400E-01	 1.38563E-02	 4.93507E-01	 9.33466E-03	-4.45292E-02	 4.43400E+00	 2.39145E-01	 4.51499E-03	 2.64663E+01	 2.55663E+00	-1.09623E+00	 9.57322E-01
     0.332	 5.00000E+00	 0.00000E+00	 0.00000E+00	 2.69225E+00	 5.85862E+02	 4.93400E-01	 1.38563E-02	 4.93506E-01	 9.33463E-03	-4.45292E-02	 4.43400E+00	 2.39146E-01	 4.51499E-03	 2.64663E+01	 2.55662E+00	-1.09623E+00	 9.57322E-01
     0.336	 5.00000E+00	 0.00000E+00	 0.00000E+00	 2.69225E+00	 5.85862E+02	 4.93400E-01	 1.38563E-02	 4.93507E-01	 9.33465E-03	-4.45292E-02	 4.43400E+00	 2.39145E-01	 4.51499E-03	 2.64663E+01	 2.55663E+00	-1.09623E+00	 9.57323E-01
     0.340	 5.00000E+00	 0.00000E+00	 0.00000E+00	 2.69225E+00	 5.85861E+02	 4.93400E-01	 1.38563E-02	 4.93506E-01	 9.33464E-03	-4.45292E-02	 4.43400E+00	 2.39146E-01	 4.51499E-03	 2.64663E+01	 2.55662E+00	-1.09623E+00	 9.57322E-01
     0.344	 5.00000E+00	 0.00000E+00	 0.00000E+00	 2.69225E+00	 5.85862E+02	 4.93400E-01	 1.38563E-02	 4.93507E-01	 9.33465E-03	-4.45292E-02	 4.43400E+00	 2.39145E-01	 4.51499E-03	 2.64663E+01	 2.55663E+00	-1.09623E+00	 9.57322E-01
     0.348	 5.00000E+00	 0.00000E+00	 0.00000E+00	 2.69225E+00	 5.85862E+02	 4.93400E-01	 1.38563E-02	 4.93506E-01	 9.33463E-03	-4.45292E-02	 4.43400E+00	 2.39146E-01	 4.51499E-03	 2.64663E+01	 2.55662E+00	-1.09623E+00	 9.57322E-01
     0.352	 5.00000E+00	 0.00000E+00	 0.00000E+00	 2.69225E+00	 5.85862E+02	 4.93400E-01	 1.38563E-02	 4.93507E-01	 9.33465E-03	-4.45292E-02	 4.43400E+00	 2.39145E-01	 4.51499E-03	 2.64663E+01	 2.55663E+00	-1.09623E+00	 9.57322E-01
     0.356	 5.00000E+00	 0.00000E+00	 0.00000E+00	 2.69225E+00	 5.85862E+02	 4.93400E-01	 1.38563E-02	 4.93506E-01	 9.33463E-03	-4.45292E-02	 4.43400E+00	 2.39146E-01	 4.51499E-03	 2.64663E+01	 2.55662E+00	-1.09623E+00	 9.57323E-01
     0.360	 5.00000E+00	 0.00000E+00	 0.00000E+00	 2.69225E+00	 5.85862E+02	 4.93400E-01	 1.38563E-02	 4.93506E-01	 9.33464E-03	-4.45292E-02	 4.43400E+00	 2.39146E-01	 4.51499E-03	 2.64663E+01	 2.55662E+00	-1.09623E+00	 9.57322E-01
     0.364	 5.00000E+00	 0.00000E+00	 0.00000E+00	 2.69225E+00	 5.85862E+02	 4.93400E-01	 1.38563E-02	 4.93507E-01	 9.33465E-03	-4.45292E-02	 4.43400E+00	 2.39145E-01	 4.51499E-03	 2.64663E+01	 2.55663E+00	-1.09623E+00	 9.57323E-01
     0.368	 5.00000E+00	 0.00000E+00	 0.00000E+00	 2.69225E+00	 5.85862E+02	 4.93400E-01	 1.38563E-02	 4.93506E-01	 9.33463E-03	-4.45292E-02	 4.43400E+00	 2.39146E-01	 4.51499E-03	 2.64663E+01	 2.55662E+00	-1.09623E+00	 9.57323E-01
     0.372	 5.00000E+00	 0.00000E+00	 0.00000E+00	 2.69225E+00	 5.85862E+02	 4.93400E-01	 1.38563E-02	 4.93506E-01	 9.33463E-03	-4.45292E-02	 4.43400E+00	 2.39146E-01	 4.51499E-03	 2.64663E+01	 2.55662E+00	-1.09623E+00	 9.57323E-01
     0.376	 5.00000E+00	 0.00000E+00	 0.00000E+00	 2.69225E+00	 5.85862E+02	 4.93400E-01	 1.38563E-02	 4.93506E-01	 9.33462E-03	-4.45292E-02	 4.43400E+00	 2.39146E-01	 4.51499E-03	 2.64663E+01	 2.55662E+00	-1.09623E+00	 9.57323E-01
     0.380	 5.00000E+00	 0.00000E+00	 0.00000E+00	 2.69225E+00	 5.85862E+02	 4.93400E-01	 1.38563E-02	 4.93507E-01	 9.33465E-03	-4.45292E-02	 4.43400E+00	 2.39145E-01	 4.51499E-03	 2.64663E+01	 2.55663E+00	-1.09623E+00	 9.57323E-01
     0.384	 5.00000E+00	 0.00000E+00	 0.00000E+00	 2.69225E+00	 5.85862E+02	 4.93400E-01	 1.38563E-02	 4.93506E-01	 9.33463E-03	-4.45292E-02	 4.43400E+00	 2.39146E-01	 4.51499E-03	 2.64663E+01	 2.55662E+00	-1.09623E+00	 9.57323E-01
     0.388	 5.00000E+00	 0.00000E+00	 0.00000E+00	 2.69225E+00	 5.85862E+02	 4.93400E-01	 1.38563E-02	 4.93507E-01	 9.33465E-03	-4.45292E-02	 4.43400E+00	 2.39145E-01	 4.51499E-03	 2.64663E+01	 2.55663E+00	-1.09623E+00	 9.57322E-01
     0.392	 5.00000E+00	 0.00000E+00	 0.00000E+00	 2.69225E+00	 5.85862E+02	 4.93400E-01	 1.38563E-02	 4.93506E-01	 9.33464E-03	-4.45292E-02	 4.43400E+00	 2.39146E-01	 4.51499E-03	 2.64663E+01	 2.55662E+00	-1.09623E+00	 9.57322E-01
     0.396	 5.00000E+00	 0.00000E+00	 0.00000E+00	 2.69225E+00	 5.85862E+02	 4.93400E-01	 1.38563E-02	 4.93506E-01	 9.33463E-03	-4.45292E-02	 4.43400E+00	 2.39146E-01	 4.51499E-03	 2.64663E+01	 2.55662E+00	-1.09623E+00	 9.57323E-01
     0.400	 5.00000E+00	 0.00000E+00	 0.00000E+00	 2.69225E+00	 5.85862E+02	 4.93400E-01	 1.38563E-02	 4.93506E-01	 9.33464E-03	-4.45292E-02	 4.43400E+00	 2.39146E-01	 4.51499E-03	 2.64663E+01	 2.55662E+00	-1.09623E+00	 9.57322E-01
     0.404	 5.00000E+00	 0.00000E+00	 0.00000E+00	 2.69225E+00	 5.85862E+02	 4.93400E-01	 1.38563E-02	 4.93506E-01	 9.33462E-03	-4.45292E-02	 4.43400E+00	 2.39146E-01	 4.51499E-03	 2.64663E+01	 2.55662E+00	-1.09623E+00	 9.57323E-01
     0.408	 5.00000E+00	 0.00000E+00	 0.00000E+00	 2.69225E+00	 5.85862E+02	 4.93400E-01	 1.38563E-02	 4.93507E-01	 9.33466E-03	-4.45292E-02	 4.43400E+00	 2.39145E-01	 4.51499E-03	 2.64663E+01	 2.55663E+00	-1.09623E+00	 9.57322E-01
     0.412	 5.00000E+00	 0.00000E+00	 0.00000E+00	 2.69225E+00	 5.85862E+02	 4.93400E-01	 1.38563E-02	 4.93506E-01	 9.33462E-03	-4.45292E-02	 4.43400E+00	 2.39146E-01	 4.51499E-03	 2.64663E+01	 2.55662E+00	-1.09623E+00	 9.57323E-01
     0.416	 5.00000E+00	 0.00000E+00	 0.00000E+00	 2.69225E+00	 5.85862E+02	 4.93400E-01	 1.38563E-02	 4.93507E-01	 9.33466E-03	-4.45292E-02	 4.43400E+00	 2.39145E-01	 4.51499E-03	 2.64663E+01	 2.55663E+00	-1.09623E+00	 9.57322E-01
     0.420	 5.00000E+00	 0.00000E+00	 0.00000E+00	 2.69225E+00	 5.85862E+02	 4.93400E-01	 1.38563E-02	 4.93506E-01	 9.33462E-03	-4.45292E-02	 4.43400E+00	 2.39146E-01	 4.51499E-03	 2.64663E+01	 2.55662E+00	-1.09623E+00	 9.57323E-01
     0.424	 5.00000E+00	 0.00000E+00	 0.00000E+00	 2.69225E+00	 5.85862E+02	 4.93400E-01	 1.38563E-02	 4.93507E-01	 9.33465E-03	-4.45292E-02	 4.43400E+00	 2.39145E-01	 4.51499E-03	 2.64663E+01	 2.55663E+00	-1.09623E+00	 9.57322E-01
     0.428	 5.00000E+00	 0.00000E+00	 0.00000E+00	 2.69225E+00	 5.85862E+02	 4.93400E-01	 1.38563E-02	 4.93506E-01	 9.33462E-03	-4.45292E-02	 4.43400E+00	 2.39146E-01	 4.51499E-03	 2.64663E+01	 2.55662E+00	-1.09623E+00	 9.57323E-01
     0.432	 5.00000E+00	 0.00000E+00	 0.00000E+00	 2.69225E+00	 5.85862E+02	 4.93400E-01	 1.38563E-02	 4.93507E-01	 9.33465E-03	-4.45292E-02	 4.43400E+00	 2.39145E-01	 4.51499E-03	 2.64663E+01	 2.55663E+00	-1.09623E+00	 9.57323E-01
     0.436	 5.00000E+00	 0.00000E+00	 0.00000E+00	 2.69225E+00	 5.85862E+02	 4.93400E-01	 1.38563E-02	 4.93506E-01	 9.33462E-03	-4.45292E-02	 4.43400E+00	 2.39146E-01	 4.51499E-03	 2.64663E+01	 2.55662E+00	-1.09623E+00	 9.57322E-01
     0.440	 5.00000E+00	 0.00000E+00	 0.00000E+00	 2.69225E+00	 5.85862E+02	 4.93400E-01	 1.38563E-02	 4.93507E-01	 9.33465E-03	-4.45292E-02	 4.43400E+00	 2.39145E-01	 4.51499E-03	 2.64663E+01	 2.55663E+00	-1.09623E+00	 9.57323E-01
     0.444	 5.00000E+00	 0.00000E+00	 0.00000E+00	 2.69225E+00	 5.85862E+02	 4.93400E-01	 1.38563E-02	 4.93506E-01	 9.33462E-03	-4.45292E-02	 4.43400E+00	 2.39146E-01	 4.51499E-03	 2.64663E+01	 2.55662E+00	-1.09623E+00	 9.57322E-01
     0.448	 5.00000E+00	 0.00000E+00	 0.00000E+00	 2.69225E+00	 5.85862E+02	 4.93400E-01	 1.38563E-02	 4.93507E-01	 9.33466E-03	-4.45292E-02	 4.43400E+00	 2.39145E-01	 4.51499E-03	 2.64663E+01	 2.55663E+00	-1.09623E+00	 9.57322E-01
     0.452	 5.00000E+00	 0.00000E+00	 0.00000E+00	 2.69225E+00	 5.85862E+02	 4.93400E-01	 1.38563E-02	 4.93506E-01	 9.33462E-03	-4.45292E-02	 4.43400E+00	 2.39146E-01	 4.51499E-03	 2.64663E+01	 2.55662E+00	-1.09623E+00	 9.57323E-01
     0.456	 5.00000E+00	 0.00000E+00	 0.00000E+00	 2.69225E+00	 5.85862E+02	 4.93400E-01	 1.38563E-02	 4.93507E-01	 9.33465E-03	-4.45292E-02	 4.43400E+00	 2.39145E-01	 4.51499E-03	 2.64663E+01	 2.55663E+00	-1.09623E+00	 9.57323E-01
     0.460	 5.00000E+00	 0.00000E+00	 0.00000E+00	 2.69225E+00	 5.85862E+02	 4.93400E-01	 1.38563E-02	 4.93506E-01	 9.33463E-03	-4.45292E-02	 4.43400E+00	 2.39146E-01	 4.51499E-03	 2.64663E+01	 2.55662E+00	-1.09623E+00	 9.57323E-01
     0.464	 5.00000E+00	 0.00000E+00	 0.00000E+00	 2.69225E+00	 5.85862E+02	 4.93400E-01	 1.38563E-02	 4.93506E-01	 9.33464E-03	-4.45292E-02	 4.43400E+00	 2.39146E-01	 4.51499E-03	 2.64663E+01	 2.55662E+00	-1.09623E+00	 9.57322E-01
     0.468	 5.00000E+00	 0.00000E+00	 0.00000E+00	 2.69225E+00	 5.85862E+02	 4.93400E-01	 1.38563E-02	 4.93506E-01	 9.33464E-03	-4.45292E-02	 4.43400E+00	 2.39145E-01	 4.51499E-03	 2.64663E+01	 2.55663E+00	-1.09623E+00	 9.57323E-01
     0.472	 5.00000E+00	 0.00000E+00	 0.00000E+00	 2.69225E+00	 5.85862E+02	 4.93400E-01	 1.38563E-02	 4.93506E-01	 9.33464E-03	-4.45292E-02	 4.43400E+00	 2.39146E-01	 4.51499E-03	 2.64663E+01	 2.55662E+00	-1.09623E+00	 9.57322E-01
     0.476	 5.00000E+00	 0.00000E+00	 0.00000E+00	 2.69225E+00	 5.85862E+02	 4.93400E-01	 1.38563E-02	 4.93507E-01	 9.33465E-03	-4.45292E-02	 4.43400E+00	 2.39145E-01	 4.51499E-03	 2.64663E+01	 2.55663E+00	-1.09623E+00	 9.57322E-01
     0.480	 5.00000E+00	 0.00000E+00	 0.00000E+00	 2.69225E+00	 5.85861E+02	 4.93400E-01	 1.38563E-02	 4.93506E-01	 9.33463E-03	-4.45292E-02	 4.43400E+00	 2.39146E-01	 4.51499E-03	 2.64663E+01	 2.55662E+00	-1.09623E+00	 9.57322E-01
     0.484	 5.00000E+00	 0.00000E+00	 0.00000E+00	 2.69225E+00	 5.85862E+02	 4.93400E-01	 1.38563E-02	 4.93507E-01	 9.33465E-03	-4.45292E-02	 4.43400E+00	 2.39145E-01	 4.51499E-03	 2.64663E+01	 2.55663E+00	-1.09623E+00	 9.57323E-01
     0.488	 5.00000E+00	 0.00000E+00	 0.00000E+00	 2.69225E+00	 5.85862E+02	 4.93400E-01	 1.38563E-02	 4.93506E-01	 9.33462E-03	-4.45292E-02	 4.43400E+00	 2.39146E-01	 4.51499E-03	 2.64663E+01	 2.55662E+00	-1.09623E+00	 9.57322E-01
     0.492	 5.00000E+00	 0.00000E+00	 0.00000E+00	 2.69225E+00	 5.85862E+02	 4.93400E-01	 1.38563E-02	 4.93507E-01	 9.33466E-03	-4.45292E-02	 4.43400E+00	 2.39145E-01	 4.51499E-03	 2.64663E+01	 2.55663E+00	-1.09623E+00	 9.57322E-01
     0.496	 5.00000E+00	 0.00000E+00	 0.00000E+00	 2.69225E+00	 5.85862E+02	 4.93400E-01	 1.38563E-02	 4.93506E-01	 9.33463E-03	-4.45292E-02	 4.43400E+00	 2.39146E-01	 4.51499E-03	 2.64663E+01	 2.55662E+00	-1.09623E+00	 9.57323E-01
     0.500	 5.00000E+00	 0.00000E+00	 0.00000E+00	 2.69225E+00	 5.85862E+02	 4.93400E-01	 1.38563E-02	 4.93507E-01	 9.33465E-03	-4.45292E-02	 4.43400E+00	 2.39145E-01	 4.51499E-03	 2.64663E+01	 2.55663E+00	-1.09623E+00	 9.57323E-01
     0.504	 5.00000E+00	 0.00000E+00	 0.00000E+00	 2.69225E+00	 5.85862E+02	 4.93400E-01	 1.38563E-02	 4.93506E-01	 9.33463E-03	-4.45292E-02	 4.43400E+00	 2.39146E-01	 4.51499E-03	 2.64663E+01	 2.55662E+00	-1.09623E+00	 9.57323E-01
     0.508	 5.00000E+00	 0.00000E+00	 0.00000E+00	 2.69225E+00	 5.85862E+02	 4.93400E-01	 1.38563E-02	 4.93507E-01	 9.33465E-03	-4.45292E-02	 4.43400E+00	 2.39145E-01	 4.51499E-03	 2.64663E+01	 2.55663E+00	-1.09623E+00	 9.57323E-01
     0.512	 5.00000E+00	 0.00000E+00	 0.00000E+00	 2.69225E+00	 5.85862E+02	 4.93400E-01	 1.38563E-02	 4.93506E-01	 9.33462E-03	-4.45292E-02	 4.43400E+00	 2.39146E-01	 4.51499E-03	 2.64663E+01	 2.55662E+00	-1.09623E+00	 9.57322E-01
     0.516	 5.00000E+00	 0.00000E+00	 0.00000E+00	 2.69225E+00	 5.85862E+02	 4.93400E-01	 1.38563E-02	 4.93506E-01	 9.33464E-03	-4.45292E-02	 4.43400E+00	 2.39145E-01	 4.51499E-03	 2.64663E+01	 2.55663E+00	-1.09623E+00	 9.57323E-01
     0.520	 5.00000E+00	 0.00000E+00	 0.00000E+00	 2.69225E+00	 5.85862E+02	 4.93400E-01	 1.38563E-02	 4.93506E-01	 9.33462E-03	-4.45292E-02	 4.43400E+00	 2.39146E-01	 4.51499E-03	 2.64663E+01	 2.55662E+00	-1.09623E+00	 9.57323E-01
     0.524	 5.00000E+00	 0.00000E+00	 0.00000E+00	 2.69225E+00	 5.85862E+02	 4.93400E-01	 1.38563E-02	 4.93507E-01	 9.33465E-03	-4.45292E-02	 4.43400E+00	 2.39145E-01	 4.51499E-03	 2.64663E+01	 2.55663E+00	-1.09623E+00	 9.57322E-01
     0.528	 5.00000E+00	 0.00000E+00	 0.00000E+00	 2.69225E+00	 5.85862E+02	 4.93400E-01	 1.38563E-02	 4.93506E-01	 9.33463E-03	-4.45292E-02	 4.43400E+00	 2.39146E-01	 4.51499E-03	 2.64663E+01	 2.55662E+00	-1.09623E+00	 9.57322E-01
     0.532	 5.00000E+00	 0.00000E+00	 0.00000E+00	 2.69225E+00	 5.85862E+02	 4.93400E-01	 1.38563E-02	 4.93507E-01	 9.33465E-03	-4.45292E-02	 4.43400E+00	 2.39145E-01	 4.51499E-03	 2.64663E+01	 2.55663E+00	-1.09623E+00	 9.57323E-01
     0.536	 5.00000E+00	 0.00000E+00	 0.00000E+00	 2.69225E+00	 5.85862E+02	 4.93400E-01	 1.38563E-02	 4.93506E-01	 9.33462E-03	-4.45292E-02	 4.43400E+00	 2.39146E-01	 4.51499E-03	 2.64663E+01	 2.55662E+00	-1.09623E+00	 9.57322E-01
     0.540	 5.00000E+00	 0.00000E+00	 0.00000E+00	 2.69225E+00	 5.85862E+02	 4.93400E-01	 1.38563E-02	 4.93506E-01	 9.33464E-03	-4.45292E-02	 4.43400E+00	 2.39145E-01	 4.51499E-03	 2.64663E+01	 2.55663E+00	-1.09623E+00	 9.57323E-01
     0.544	 5.00000E+00	 0.00000E+00	 0.00000E+00	 2.69225E+00	 5.85862E+02	 4.93400E-01	 1.38563E-02	 4.93506E-01	 9.33463E-03	-4.45292E-02	 4.43400E+00	 2.39146E-01	 4.51499E-03	 2.64663E+01	 2.55662E+00	-1.09623E+00	 9.57322E-01
     0.548	 5.00000E+00	 0.00000E+00	 0.00000E+00	 2.69225E+00	 5.85862E+02	 4.93400E-01	 1.38563E-02	 4.93507E-01	 9.33465E-03	-4.45292E-02	 4.43400E+00	 2.39145E-01	 4.51499E-03	 2.64663E+01	 2.55663E+00	-1.09623E+00	 9.57323E-01
     0.552	 5.00000E+00	 0.00000E+00	 0.00000E+00	 2.69225E+00	 5.85862E+02	 4.93400E-01	 1.38563E-02	 4.93506E-01	 9.33463E-03	-4.45292E-02	 4.43400E+00	 2.39146E-01	 4.51499E-03	 2.64663E+01	 2.55662E+00	-1.09623E+00	 9.57322E-01
     0.556	 5.00000E+00	 0.00000E+00	 0.00000E+00	 2.69225E+00	 5.85862E+02	 4.93400E-01	 1.38563E-02	 4.93507E-01	 9.33465E-03	-4.45292E-02	 4.43400E+00	 2.39145E-01	 4.51499E-03	 2.64663E+01	 2.55663E+00	-1.09623E+00	 9.57322E-01
     0.560	 5.00000E+00	 0.00000E+00	 0.00000E+00	 2.69225E+00	 5.85862E+02	 4.93400E-01	 1.38563E-02	 4.93506E-01	 9.33462E-03	-4.45292E-02	 4.43400E+00	 2.39146E-01	 4.51499E-03	 2.64663E+01	 2.55662E+00	-1.09623E+00	 9.57323E-01
     0.564	 5.00000E+00	 0.00000E+00	 0.00000E+00	 2.69225E+00	 5.85862E+02	 4.93400E-01	 1.38563E-02	 4.93506E-01	 9.33464E-03	-4.45292E-02	 4.43400E+00	 2.39145E-01	 4.51499E-03	 2.64663E+01	 2.55663E+00	-1.09623E+00	 9.57323E-01
     0.568	 5.00000E+00	 0.00000E+00	 0.00000E+00	 2.69225E+00	 5.85862E+02	 4.93400E-01	 1.38563E-02	 4.93506E-01	 9.33463E-03	-4.45292E-02	 4.43400E+00	 2.39146E-01	 4.51499E-03	 2.64663E+01	 2.55662E+00	-1.09623E+00	 9.57322E-01
     0.572	 5.00000E+00	 0.00000E+00	 0.00000E+00	 2.69225E+00	 5.85862E+02	 4.93400E-01	 1.38563E-02	 4.93507E-01	 9.33465E-03	-4.45292E-02	 4.43400E+00	 2.39145E-01	 4.51499E-03	 2.64663E+01	 2.55663E+00	-1.09623E+00	 9.57323E-01
     0.576	 5.00000E+00	 0.00000E+00	 0.00000E+00	 2.69225E+00	 5.85862E+02	 4.93400E-01	 1.38563E-02	 4.93506E-01	 9.33463E-03	-4.45292E-02	 4.43400E+00	 2.39146E-01	 4.51499E-03	 2.64663E+01	 2.55662E+00	-1.09623E+00	 9.57322E-01
     0.580	 5.00000E+00	 0.00000E+00	 0.00000E+00	 2.69225E+00	 5.85862E+02	 4.93400E-01	 1.38563E-02	 4.93506E-01	 9.33463E-03	-4.45292E-02	 4.43400E+00	 2.39146E-01	 4.51499E-03	 2.64663E+01	 2.55662E+00	-1.09623E+00	 9.57323E-01
     0.584	 5.00000E+00	 0.00000E+00	 0.00000E+00	 2.69225E+00	 5.85862E+02	 4.93400E-01	 1.38563E-02	 4.93506E-01	 9.33463E-03	-4.45292E-02	 4.43400E+00	 2.39146E-01	 4.51499E-03	 2.64663E+01	 2.55662E+00	-1.09623E+00	 9.57323E-01
     0.588	 5.00000E+00	 0.00000E+00	 0.00000E+00	 2.69225E+00	 5.85862E+02	 4.93400E-01	 1.38563E-02	 4.93506E-01	 9.33462E-03	-4.45292E-02	 4.43400E+00	 2.39146E-01	 4.51499E-03	 2.64663E+01	 2.55662E+00	-1.09623E+00	 9.57323E-01
     0.592	 5.00000E+00	 0.00000E+00	 0.00000E+00	 2.69225E+00	 5.85862E+02	 4.93400E-01	 1.38563E-02	 4.93507E-01	 9.33466E-03	-4.45292E-02	 4.43400E+00	 2.39145E-01	 4.51499E-03	 2.64663E+01	 2.55663E+00	-1.09623E+00	 9.57322E-01
     0.596	 5.00000E+00	 0.00000E+00	 0.00000E+00	 2.69225E+00	 5.85862E+02	 4.93400E-01	 1.38563E-02	 4.93506E-01	 9.33462E-03	-4.45292E-02	 4.43400E+00	 2.39146E-01	 4.51499E-03	 2.64663E+01	 2.55662E+00	-1.09623E+00	 9.57322E-01
     0.600	 5.00000E+00	 0.00000E+00	 0.00000E+00	 2.69225E+00	 5.85862E+02	 4.93400E-01	 1.38563E-02	 4.93507E-01	 9.33465E-03	-4.45292E-02	 4.43400E+00	 2.39145E-01	 4.51499E-03	 2.64663E+01	 2.55663E+00	-1.09623E+00	 9.57322E-01
     0.604	 5.00000E+00	 0.00000E+00	 0.00000E+00	 2.69225E+00	 5.85862E+02	 4.93400E-01	 1.38563E-02	 4.93506E-01	 9.33462E-03	-4.45292E-02	 4.43400E+00	 2.39146E-01	 4.51499E-03	 2.64663E+01	 2.55662E+00	-1.09623E+00	 9.57323E-01
     0.608	 5.00000E+00	 0.00000E+00	 0.00000E+00	 2.69225E+00	 5.85862E+02	 4.93400E-01	 1.38563E-02	 4.93507E-01	 9.33465E-03	-4.45292E-02	 4.43400E+00	 2.39145E-01	 4.51499E-03	 2.64663E+01	 2.55663E+00	-1.09623E+00	 9.57322E-01
     0.612	 5.00000E+00	 0.00000E+00	 0.00000E+00	 2.69225E+00	 5.85861E+02	 4.93400E-01	 1.38563E-02	 4.93506E-01	 9.33463E-03	-4.45292E-02	 4.43400E+00	 2.39146E-01	 4.51499E-03	 2.64663E+01	 2.55662E+00	-1.09623E+00	 9.57322E-01
     0.616	 5.00000E+00	 0.00000E+00	 0.00000E+00	 2.69225E+00	 5.85862E+02	 4.93400E-01	 1.38563E-02	 4.93507E-01	 9.33465E-03	-4.45292E-02	 4.43400E+00	 2.39145E-01	 4.51499E-03	 2.64663E+01	 2.55663E+00	-1.09623E+00	 9.57322E-01
     0.620	 5.00000E+00	 0.00000E+00	 0.00000E+00	 2.69225E+00	 5.85862E+02	 4.93400E-01	 1.38563E-02	 4.93506E-01	 9.33463E-03	-4.45292E-02	 4.43400E+00	 2.39146E-01	 4.51499E-03	 2.64663E+01	 2.55662E+00	-1.09623E+00	 9.57322E-01
     0.624	 5.00000E+00	 0.00000E+00	 0.00000E+00	 2.69225E+00	 5.85862E+02	 4.93400E-01	 1.38563E-02	 4.93506E-01	 9.33464E-03	-4.45292E-02	 4.43400E+00	 2.39145E-01	 4.51499E-03	 2.64663E+01	 2.55663E+00	-1.09623E+00	 9.57323E-01
     0.628	 5.00000E+00	 0.00000E+00	 0.00000E+00	 2.69225E+00	 5.85861E+02	 4.93400E-01	 1.38563E-02	 4.93506E-01	 9.33463E-03	-4.45292E-02	 4.43400E+00	 2.39146E-01	 4.51499E-03	 2.64663E+01	 2.55662E+00	-1.09623E+00	 9.57322E-01
     0.632	 5.00000E+00	 0.00000E+00	 0.00000E+00	 2.69225E+00	 5.85862E+02	 4.93400E-01	 1.38563E-02	 4.93506E-01	 9.33464E-03	-4.45292E-02	 4.43400E+00	 2.39145E-01	 4.51499E-03	 2.64663E+01	 2.55663E+00	-1.09623E+00	 9.57323E-01
     0.636	 5.00000E+00	 0.00000E+00	 0.00000E+00	 2.69225E+00	 5.85862E+02	 4.93400E-01	 1.38563E-02	 4.93506E-01	 9.33463E-03	-4.45292E-02	 4.43400E+00	 2.39146E-01	 4.51499E-03	 2.64663E+01	 2.55662E+00	-1.09623E+00	 9.57323E-01
     0.640	 5.00000E+00	 0.00000E+00	 0.00000E+00	 2.69225E+00	 5.85862E+02	 4.93400E-01	 1.38563E-02	 4.93506E-01	 9.33464E-03	-4.45292E-02	 4.43400E+00	 2.39146E-01	 4.51499E-03	 2.64663E+01	 2.55662E+00	-1.09623E+00	 9.57322E-01
     0.644	 5.00000E+00	 0.00000E+00	 0.00000E+00	 2.69225E+00	 5.85862E+02	 4.93400E-01	 1.38563E-02	 4.93506E-01	 9.33463E-03	-4.45292E-02	 4.43400E+00	 2.39146E-01	 4.51499E-03	 2.64663E+01	 2.55662E+00	-1.09623E+00	 9.57323E-01
     0.648	 5.00000E+00	 0.00000E+00	 0.00000E+00	 2.69225E+00	 5.85862E+02	 4.93400E-01	 1.38563E-02	 4.93506E-01	 9.33462E-03	-4.45292E-02	 4.43400E+00	 2.39146E-01	 4.51499E-03	 2.64663E+01	 2.55662E+00	-1.09623E+00	 9.57323E-01
     0.652	 5.00000E+00	 0.00000E+00	 0.00000E+00	 2.69225E+00	 5.85862E+02	 4.93400E-01	 1.38563E-02	 4.93507E-01	 9.33465E-03	-4.45292E-02	 4.43400E+00	 2.39145E-01	 4.51499E-03	 2.64663E+01	 2.55663E+00	-1.09623E+00	 9.57322E-01
     0.656	 5.00000E+00	 0.00000E+00	 0.00000E+00	 2.69225E+00	 5.85862E+02	 4.93400E-01	 1.38563E-02	 4.93506E-01	 9.33462E-03	-4.45292E-02	 4.43400E+00	 2.39146E-01	 4.51499E-03	 2.64663E+01	 2.55662E+00	-1.09623E+00	 9.57323E-01
     0.660	 5.00000E+00	 0.00000E+00	 0.00000E+00	 2.69225E+00	 5.85862E+02	 4.93400E-01	 1.38563E-02	 4.93507E-01	 9.33465E-03	-4.45292E-02	 4.43400E+00	 2.39145E-01	 4.51499E-03	 2.64663E+01	 2.55663E+00	-1.09623E+00	 9.57322E-01
     0.664	 5.00000E+00	 0.00000E+00	 0.00000E+00	 2.69225E+00	 5.85862E+02	 4.93400E-01	 1.38563E-02	 4.93506E-01	 9.33462E-03	-4.45292E-02	 4.43400E+00	 2.39146E-01	 4.51499E-03	 2.64663E+01	 2.55662E+00	-1.09623E+00	 9.57322E-01
     0.668	 5.00000E+00	 0.00000E+00	 0.00000E+00	 2.69225E+00	 5.85862E+02	 4.93400E-01	 1.38563E-02	 4.93507E-01	 9.33465E-03	-4.45292E-02	 4.43400E+00	 2.39145E-01	 4.51499E-03	 2.64663E+01	 2.55663E+00	-1.09623E+00	 9.57322E-01
     0.672	 5.00000E+00	 0.00000E+00	 0.00000E+00	 2.69225E+00	 5.85862E+02	 4.93400E-01	 1.38563E-02	 4.93506E-01	 9.33462E-03	-4.45292E-02	 4.43400E+00	 2.39146E-01	 4.51499E-03	 2.64663E+01	 2.55662E+00	-1.09623E+00	 9.57323E-01
     0.676	 5.00000E+00	 0.00000E+00	 0.00000E+00	 2.69225E+00	 5.85862E+02	 4.93400E-01	 1.38563E-02	 4.93507E-01	 9.33465E-03	-4.45292E-02	 4.43400E+00	 2.39145E-01	 4.51499E-03	 2.64663E+01	 2.55663E+00	-1.09623E+00	 9.57322E-01
     0.680	 5.00000E+00	 0.00000E+00	 0.00000E+00	 2.69225E+00	 5.85862E+02	 4.93400E-01	 1.38563E-02	 4.93506E-01	 9.33462E-03	-4.45292E-02	 4.43400E+00	 2.39146E-01	 4.51499E-03	 2.64663E+01	 2.55662E+00	-1.09623E+00	 9.57322E-01
     0.684	 5.00000E+00	 0.00000E+00	 0.00000E+00	 2.69225E+00	 5.85862E+02	 4.93400E-01	 1.38563E-02	 4.93506E-01	 9.33464E-03	-4.45292E-02	 4.43400E+00	 2.39145E-01	 4.51499E-03	 2.64663E+01	 2.55663E+00	-1.09623E+00	 9.57323E-01
     0.688	 5.00000E+00	 0.00000E+00	 0.00000E+00	 2.69225E+00	 5.85862E+02	 4.93400E-01	 1.38563E-02	 4.93506E-01	 9.33462E-03	-4.45292E-02	 4.43400E+00	 2.39146E-01	 4.51499E-03	 2.64663E+01	 2.55662E+00	-1.09623E+00	 9.57322E-01
     0.692	 5.00000E+00	 0.00000E+00	 0.00000E+00	 2.69225E+00	 5.85862E+02	 4.93400E-01	 1.38563E-02	 4.93506E-01	 9.33464E-03	-4.45292E-02	 4.43400E+00	 2.39145E-01	 4.51499E-03	 2.64663E+01	 2.55663E+00	-1.09623E+00	 9.57323E-01
     0.696	 5.00000E+00	 0.00000E+00	 0.00000E+00	 2.69225E+00	 5.85862E+02	 4.93400E-01	 1.38563E-02	 4.93506E-01	 9.33462E-03	-4.45292E-02	 4.43400E+00	 2.39146E-01	 4.51499E-03	 2.64663E+01	 2.55662E+00	-1.09623E+00	 9.57323E-01
     0.700	 5.00000E+00	 0.00000E+00	 0.00000E+00	 2.69225E+00	 5.85862E+02	 4.93400E-01	 1.38563E-02	 4.93506E-01	 9.33463E-03	-4.45292E-02	 4.43400E+00	 2.39146E-01	 4.51499E-03	 2.64663E+01	 2.55662E+00	-1.09623E+00	 9.57323E-01
     0.704	 5.00000E+00	 0.00000E+00	 0.00000E+00	 2.69225E+00	 5.85862E+02	 4.93400E-01	 1.38563E-02	 4.93506E-01	 9.33463E-03	-4.45292E-02	 4.43400E+00	 2.39146E-01	 4.51499E-03	 2.64663E+01	 2.55662E+00	-1.09623E+00	 9.57322E-01
     0.708	 5.00000E+00	 0.00000E+00	 0.00000E+00	 2.69225E+00	 5.85862E+02	 4.93400E-01	 1.38563E-02	 4.93507E-01	 9.33465E-03	-4.45292E-02	 4.43400E+00	 2.39145E-01	 4.51499E-03	 2.64663E+01	 2.55663E+00	-1.09623E+00	 9.57322E-01
     0.712	 5.00000E+00	 0.00000E+00	 0.00000E+00	 2.69225E+00	 5.85862E+02	 4.93400E-01	 1.38563E-02	 4.93506E-01	 9.33462E-03	-4.45292E-02	 4.43400E+00	 2.39146E-01	 4.51499E-03	 2.64663E+01	 2.55662E+00	-1.09623E+00	 9.57323E-01
     0.716	 5.00000E+00	 0.00000E+00	 0.00000E+00	 2.69225E+00	 5.85862E+02	 4.93400E-01	 1.38563E-02	 4.93507E-01	 9.33465E-03	-4.45292E-02	 4.43400E+00	 2.39145E-01	 4.51499E-03	 2.64663E+01	 2.55663E+00	-1.09623E+00	 9.57322E-01
     0.720	 5.00000E+00	 0.00000E+00	 0.00000E+00	 2.69225E+00	 5.85862E+02	 4.93400E-01	 1.38563E-02	 4.93506E-01	 9.33462E-03	-4.45292E-02	 4.43400E+00	 2.39146E-01	 4.51499E-03	 2.64663E+01	 2.55662E+00	-1.09623E+00	 9.57322E-01
     0.724	 5.00000E+00	 0.00000E+00	 0.00000E+00	 2.69225E+00	 5.85862E+02	 4.93400E-01	 1.38563E-02	 4.93507E-01	 9.33465E-03	-4.45292E-02	 4.43400E+00	 2.39145E-01	 4.51499E-03	 2.64663E+01	 2.55663E+00	-1.09623E+00	 9.57322E-01
     0.728	 5.00000E+00	 0.00000E+00	 0.00000E+00	 2.69225E+00	 5.85862E+02	 4.93400E-01	 1.38563E-02	 4.93506E-01	 9.33463E-03	-4.45292E-02	 4.43400E+00	 2.39146E-01	 4.51499E-03	 2.64663E+01	 2.55662E+00	-1.09623E+00	 9.57322E-01
     0.732	 5.00000E+00	 0.00000E+00	 0.00000E+00	 2.69225E+00	 5.85862E+02	 4.93400E-01	 1.38563E-02	 4.93506E-01	 9.33463E-03	-4.45292E-02	 4.43400E+00	 2.39146E-01	 4.51499E-03	 2.64663E+01	 2.55662E+00	-1.09623E+00	 9.57323E-01
     0.736	 5.00000E+00	 0.00000E+00	 0.00000E+00	 2.69225E+00	 5.85862E+02	 4.93400E-01	 1.38563E-02	 4.93506E-01	 9.33464E-03	-4.45292E-02	 4.43400E+00	 2.39146E-01	 4.51499E-03	 2.64663E+01	 2.55662E+00	-1.09623E+00	 9.57322E-01
     0.740	 5.00000E+00	 0.00000E+00	 0.00000E+00	 2.69225E+00	 5.85862E+02	 4.93400E-01	 1.38563E-02	 4.93506E-01	 9.33464E-03	-4.45292E-02	 4.43400E+00	 2.39146E-01	 4.51499E-03	 2.64663E+01	 2.55662E+00	-1.09623E+00	 9.57322E-01
     0.744	 5.00000E+00	 0.00000E+00	 0.00000E+00	 2.69225E+00	 5.85862E+02	 4.93400E-01	 1.38563E-02	 4.93506E-01	 9.33462E-03	-4.45292E-02	 4.43400E+00	 2.39146E-01	 4.51499E-03	 2.64663E+01	 2.55662E+00	-1.09623E+00	 9.57323E-01
     0.748	 5.00000E+00	 0.00000E+00	 0.00000E+00	 2.69225E+00	 5.85862E+02	 4.93400E-01	 1.38563E-02	 4.93507E-01	 9.33465E-03	-4.45292E-02	 4.43400E+00	 2.39145E-01	 4.51499E-03	 2.64663E+01	 2.55663E+00	-1.09623E+00	 9.57322E-01
     0.752	 5.00000E+00	 0.00000E+00	 0.00000E+00	 2.69225E+00	 5.85862E+02	 4.93400E-01	 1.38563E-02	 4.93506E-01	 9.33463E-03	-4.45292E-02	 4.43400E+00	 2.39146E-01	 4.51499E-03	 2.64663E+01	 2.55662E+00	-1.09623E+00	 9.57322E-01
     0.756	 5.00000E+00	 0.00000E+00	 0.00000E+00	 2.69225E+00	 5.85862E+02	 4.93400E-01	 1.38563E-02	 4.93507E-01	 9.33465E-03	-4.45292E-02	 4.43400E+00	 2.39145E-01	 4.51499E-03	 2.64663E+01	 2.55663E+00	-1.09623E+00	 9.57322E-01
     0.760	 5.00000E+00	 0.00000E+00	 0.00000E+00	 2.69225E+00	 5.85862E+02	 4.93400E-01	 1.38563E-02	 4.93506E-01	 9.33462E-03	-4.45292E-02	 4.43400E+00	 2.39146E-01	 4.51499E-03	 2.64663E+01	 2.55662E+00	-1.09623E+00	 9.57323E-01
     0.764	 5.00000E+00	 0.00000E+00	 0.00000E+00	 2.69225E+00	 5.85862E+02	 4.93400E-01	 1.38563E-02	 4.93506E-01	 9.33463E-03	-4.45292E-02	 4.43400E+00	 2.39146E-01	 4.51499E-03	 2.64663E+01	 2.55662E+00	-1.09623E+00	 9.57323E-01
     0.768	 5.00000E+00	 0.00000E+00	 0.00000E+00	 2.69225E+00	 5.85862E+02	 4.93400E-01	 1.38563E-02	 4.93506E-01	 9.33463E-03	-4.45292E-02	 4.43400E+00	 2.39146E-01	 4.51499E-03	 2.64663E+01	 2.55662E+00	-1.09623E+00	 9.57323E-01
     0.772	 5.00000E+00	 0.00000E+00	 0.00000E+00	 2.69225E+00	 5.85862E+02	 4.93400E-01	 1.38563E-02	 4.93506E-01	 9.33463E-03	-4.45292E-02	 4.43400E+00	 2.39146E-01	 4.51499E-03	 2.64663E+01	 2.55662E+00	-1.09623E+00	 9.57323E-01
     0.776	 5.00000E+00	 0.00000E+00	 0.00000E+00	 2.69225E+00	 5.85862E+02	 4.93400E-01	 1.38563E-02	 4.93506E-01	 9.33462E-03	-4.45292E-02	 4.43400E+00	 2.39146E-01	 4.51499E-03	 2.64663E+01	 2.55662E+00	-1.09623E+00	 9.57323E-01
     0.780	 5.00000E+00	 0.00000E+00	 0.00000E+00	 2.69225E+00	 5.85862E+02	 4.93400E-01	 1.38563E-02	 4.93506E-01	 9.33463E-03	-4.45292E-02	 4.43400E+00	 2.39146E-01	 4.51499E-03	 2.64663E+01	 2.55662E+00	-1.09623E+00	 9.57323E-01
     0.784	 5.00000E+00	 0.00000E+00	 0.00000E+00	 2.69225E+00	 5.85862E+02	 4.93400E-01	 1.38563E-02	 4.93506E-01	 9.33462E-03	-4.45292E-02	 4.43400E+00	 2.39146E-01	 4.51499E-03	 2.64663E+01	 2.55662E+00	-1.09623E+00	 9.57323E-01
     0.788	 5.00000E+00	 0.00000E+00	 0.00000E+00	 2.69225E+00	 5.85862E+02	 4.93400E-01	 1.38563E-02	 4.93507E-01	 9.33465E-03	-4.45292E-02	 4.43400E+00	 2.39145E-01	 4.51499E-03	 2.64663E+01	 2.55663E+00	-1.09623E+00	 9.57322E-01
     0.792	 5.00000E+00	 0.00000E+00	 0.00000E+00	 2.69225E+00	 5.85862E+02	 4.93400E-01	 1.38563E-02	 4.93506E-01	 9.33462E-03	-4.45292E-02	 4.43400E+00	 2.39146E-01	 4.51499E-03	 2.64663E+01	 2.55662E+00	-1.09623E+00	 9.57323E-01
     0.796	 5.00000E+00	 0.00000E+00	 0.00000E+00	 2.69225E+00	 5.85862E+02	 4.93400E-01	 1.38563E-02	 4.93506E-01	 9.33463E-03	-4.45292E-02	 4.43400E+00	 2.39146E-01	 4.51499E-03	 2.64663E+01	 2.55662E+00	-1.09623E+00	 9.57323E-01
     0.800	 5.00000E+00	 0.00000E+00	 0.00000E+00	 2.69225E+00	 5.85862E+02	 4.93400E-01	 1.38563E-02	 4.93506E-01	 9.33464E-03	-4.45292E-02	 4.43400E+00	 2.39146E-01	 4.51499E-03	 2.64663E+01	 2.55662E+00	-1.09623E+00	 9.57322E-01
     0.804	 5.00000E+00	 0.00000E+00	 0.00000E+00	 2.69225E+00	 5.85862E+02	 4.93400E-01	 1.38563E-02	 4.93506E-01	 9.33464E-03	-4.45292E-02	 4.43400E+00	 2.39146E-01	 4.51499E-03	 2.64663E+01	 2.55662E+00	-1.09623E+00	 9.57322E-01
     0.808	 5.00000E+00	 0.00000E+00	 0.00000E+00	 2.69225E+00	 5.85862E+02	 4.93400E-01	 1.38563E-02	 4.93506E-01	 9.33463E-03	-4.45292E-02	 4.43400E+00	 2.39146E-01	 4.51499E-03	 2.64663E+01	 2.55662E+00	-1.09623E+00	 9.57323E-01
     0.812	 5.00000E+00	 0.00000E+00	 0.00000E+00	 2.69225E+00	 5.85862E+02	 4.93400E-01	 1.38563E-02	 4.93506E-01	 9.33463E-03	-4.45292E-02	 4.43400E+00	 2.39146E-01	 4.51499E-03	 2.64663E+01	 2.55662E+00	-1.09623E+00	 9.57322E-01
     0.816	 5.00000E+00	 0.00000E+00	 0.00000E+00	 2.69225E+00	 5.85862E+02	 4.93400E-01	 1.38563E-02	 4.93507E-01	 9.33465E-03	-4.45292E-02	 4.43400E+00	 2.39145E-01	 4.51499E-03	 2.64663E+01	 2.55663E+00	-1.09623E+00	 9.57322E-01
     0.820	 5.00000E+00	 0.00000E+00	 0.00000E+00	 2.69225E+00	 5.85862E+02	 4.93400E-01	 1.38563E-02	 4.93506E-01	 9.33462E-03	-4.45292E-02	 4.43400E+00	 2.39146E-01	 4.51499E-03	 2.64663E+01	 2.55662E+00	-1.09623E+00	 9.57323E-01
     0.824	 5.00000E+00	 0.00000E+00	 0.00000E+00	 2.69225E+00	 5.85862E+02	 4.93400E-01	 1.38563E-02	 4.93507E-01	 9.33465E-03	-4.45292E-02	 4.43400E+00	 2.39145E-01	 4.51499E-03	 2.64663E+01	 2.55663E+00	-1.09623E+00	 9.57322E-01
     0.828	 5.00000E+00	 0.00000E+00	 0.00000E+00	 2.69225E+00	 5.85862E+02	 4.93400E-01	 1.38563E-02	 4.93506E-01	 9.33462E-03	-4.45292E-02	 4.43400E+00	 2.39146E-01	 4.51499E-03	 2.64663E+01	 2.55662E+00	-1.09623E+00	 9.57323E-01
     0.832	 5.00000E+00	 0.00000E+00	 0.00000E+00	 2.69225E+00	 5.85862E+02	 4.93400E-01	 1.38563E-02	 4.93506E-01	 9.33463E-03	-4.45292E-02	 4.43400E+00	 2.39146E-01	 4.51499E-03	 2.64663E+01	 2.55662E+00	-1.09623E+00	 9.57323E-01
     0.836	 5.00000E+00	 0.00000E+00	 0.00000E+00	 2.69225E+00	 5.85862E+02	 4.93400E-01	 1.38563E-02	 4.93506E-01	 9.33462E-03	-4.45292E-02	 4.43400E+00	 2.39146E-01	 4.51499E-03	 2.64663E+01	 2.55662E+00	-1.09623E+00	 9.57323E-01
     0.840	 5.00000E+00	 0.00000E+00	 0.00000E+00	 2.69225E+00	 5.85861E+02	 4.93400E-01	 1.38563E-02	 4.93506E-01	 9.33464E-03	-4.45292E-02	 4.43400E+00	 2.39146E-01	 4.51499E-03	 2.64663E+01	 2.55662E+00	-1.09623E+00	 9.57322E-01
     0.844	 5.00000E+00	 0.00000E+00	 0.00000E+00	 2.69225E+00	 5.85862E+02	 4.93400E-01	 1.38563E-02	 4.93506E-01	 9.33464E-03	-4.45292E-02	 4.43400E+00	 2.39146E-01	 4.51499E-03	 2.64663E+01	 2.55662E+00	-1.09623E+00	 9.57322E-01
     0.848	 5.00000E+00	 0.00000E+00	 0.00000E+00	 2.69225E+00	 5.85861E+02	 4.93400E-01	 1.38563E-02	 4.93506E-01	 9.33464E-03	-4.45292E-02	 4.43400E+00	 2.39146E-01	 4.51499E-03	 2.64663E+01	 2.55662E+00	-1.09623E+00	 9.57322E-01
     0.852	 5.00000E+00	 0.00000E+00	 0.00000E+00	 2.69225E+00	 5.85862E+02	 4.93400E-01	 1.38563E-02	 4.93506E-01	 9.33464E-03	-4.45292E-02	 4.43400E+00	 2.39146E-01	 4.51499E-03	 2.64663E+01	 2.55662E+00	-1.09623E+00	 9.57322E-01
     0.856	 5.00000E+00	 0.00000E+00	 0.00000E+00	 2.69225E+00	 5.85862E+02	 4.93400E-01	 1.38563E-02	 4.93506E-01	 9.33463E-03	-4.45292E-02	 4.43400E+00	 2.39146E-01	 4.51499E-03	 2.64663E+01	 2.55662E+00	-1.09623E+00	 9.57323E-01
     0.860	 5.00000E+00	 0.00000E+00	 0.00000E+00	 2.69225E+00	 5.85862E+02	 4.93400E-01	 1.38563E-02	 4.93506E-01	 9.33464E-03	-4.45292E-02	 4.43400E+00	 2.39146E-01	 4.51499E-03	 2.64663E+01	 2.55662E+00	-1.09623E+00	 9.57322E-01
     0.864	 5.00000E+00	 0.00000E+00	 0.00000E+00	 2.69225E+00	 5.85862E+02	 4.93400E-01	 1.38563E-02	 4.93506E-01	 9.33462E-03	-4.45292E-02	 4.43400E+00	 2.39146E-01	 4.51499E-03	 2.64663E+01	 2.55662E+00	-1.09623E+00	 9.57323E-01
     0.868	 5.00000E+00	 0.00000E+00	 0.00000E+00	 2.69225E+00	 5.85862E+02	 4.93400E-01	 1.38563E-02	 4.93506E-01	 9.33464E-03	-4.45292E-02	 4.43400E+00	 2.39146E-01	 4.51499E-03	 2.64663E+01	 2.55662E+00	-1.09623E+00	 9.57322E-01
     0.872	 5.00000E+00	 0.00000E+00	 0.00000E+00	 2.69225E+00	 5.85862E+02	 4.93400E-01	 1.38563E-02	 4.93506E-01	 9.33463E-03	-4.45292E-02	 4.43400E+00	 2.39146E-01	 4.51499E-03	 2.64663E+01	 2.55662E+00	-1.09623E+00	 9.57323E-01
     0.876	 5.00000E+00	 0.00000E+00	 0.00000E+00	 2.69225E+00	 5.85862E+02	 4.93400E-01	 1.38563E-02	 4.93506E-01	 9.33463E-03	-4.45292E-02	 4.43400E+00	 2.39146E-01	 4.51499E-03	 2.64663E+01	 2.55662E+00	-1.09623E+00	 9.57323E-01
     0.880	 5.00000E+00	 0.00000E+00	 0.00000E+00	 2.69225E+00	 5.85862E+02	 4.93400E-01	 1.38563E-02	 4.93506E-01	 9.33462E-03	-4.45292E-02	 4.43400E+00	 2.39146E-01	 4.51499E-03	 2.64663E+01	 2.55662E+00	-1.09623E+00	 9.57323E-01
     0.884	 5.00000E+00	 0.00000E+00	 0.00000E+00	 2.69225E+00	 5.85862E+02	 4.93400E-01	 1.38563E-02	 4.93506E-01	 9.33463E-03	-4.45292E-02	 4.43400E+00	 2.39146E-01	 4.51499E-03	 2.64663E+01	 2.55662E+00	-1.09623E+00	 9.57323E-01
     0.888	 5.00000E+00	 0.00000E+00	 0.00000E+00	 2.69225E+00	 5.85862E+02	 4.93400E-01	 1.38563E-02	 4.93506E-01	 9.33463E-03	-4.45292E-02	 4.43400E+00	 2.39146E-01	 4.51499E-03	 2.64663E+01	 2.55662E+00	-1.09623E+00	 9.57322E-01
     0.892	 5.00000E+00	 0.00000E+00	 0.00000E+00	 2.69225E+00	 5.85862E+02	 4.93400E-01	 1.38563E-02	 4.93506E-01	 9.33463E-03	-4.45292E-02	 4.43400E+00	 2.39146E-01	 4.51499E-03	 2.64663E+01	 2.55662E+00	-1.09623E+00	 9.57323E-01
     0.896	 5.00000E+00	 0.00000E+00	 0.00000E+00	 2.69225E+00	 5.85862E+02	 4.93400E-01	 1.38563E-02	 4.93506E-01	 9.33463E-03	-4.45292E-02	 4.43400E+00	 2.39146E-01	 4.51499E-03	 2.64663E+01	 2.55662E+00	-1.09623E+00	 9.57322E-01
     0.900	 5.00000E+00	 0.00000E+00	 0.00000E+00	 2.69225E+00	 5.85862E+02	 4.93400E-01	 1.38563E-02	 4.93506E-01	 9.33463E-03	-4.45292E-02	 4.43400E+00	 2.39146E-01	 4.51499E-03	 2.64663E+01	 2.55662E+00	-1.09623E+00	 9.57323E-01
     0.904	 5.00000E+00	 0.00000E+00	 0.00000E+00	 2.69225E+00	 5.85862E+02	 4.93400E-01	 1.38563E-02	 4.93506E-01	 9.33464E-03	-4.45292E-02	 4.43400E+00	 2.39146E-01	 4.51499E-03	 2.64663E+01	 2.55662E+00	-1.09623E+00	 9.57322E-01
     0.908	 5.00000E+00	 0.00000E+00	 0.00000E+00	 2.69225E+00	 5.85862E+02	 4.93400E-01	 1.38563E-02	 4.93506E-01	 9.33464E-03	-4.45292E-02	 4.43400E+00	 2.39146E-01	 4.51499E-03	 2.64663E+01	 2.55662E+00	-1.09623E+00	 9.57322E-01
     0.912	 5.00000E+00	 0.00000E+00	 0.00000E+00	 2.69225E+00	 5.85862E+02	 4.93400E-01	 1.38563E-02	 4.93506E-01	 9.33462E-03	-4.45292E-02	 4.43400E+00	 2.39146E-01	 4.51499E-03	 2.64663E+01	 2.55662E+00	-1.09623E+00	 9.57323E-01
     0.916	 5.00000E+00	 0.00000E+00	 0.00000E+00	 2.69225E+00	 5.85862E+02	 4.93400E-01	 1.38563E-02	 4.93507E-01	 9.33465E-03	-4.45292E-02	 4.43400E+00	 2.39145E-01	 4.51499E-03	 2.64663E+01	 2.55663E+00	-1.09623E+00	 9.57322E-01
     0.920	 5.00000E+00	 0.00000E+00	 0.00000E+00	 2.69225E+00	 5.85862E+02	 4.93400E-01	 1.38563E-02	 4.93506E-01	 9.33462E-03	-4.45292E-02	 4.43400E+00	 2.39146E-01	 4.51499E-03	 2.64663E+01	 2.55662E+00	-1.09623E+00	 9.57322E-01
     0.924	 5.00000E+00	 0.00000E+00	 0.00000E+00	 2.69225E+00	 5.85862E+02	 4.93400E-01	 1.38563E-02	 4.93506E-01	 9.33464E-03	-4.45292E-02	 4.43400E+00	 2.39145E-01	 4.51499E-03	 2.64663E+01	 2.55663E+00	-1.09623E+00	 9.57323E-01
     0.928	 5.00000E+00	 0.00000E+00	 0.00000E+00	 2.69225E+00	 5.85862E+02	 4.93400E-01	 1.38563E-02	 4.93506E-01	 9.33462E-03	-4.45292E-02	 4.43400E+00	 2.39146E-01	 4.51499E-03	 2.64663E+01	 2.55662E+00	-1.09623E+00	 9.57322E-01
     0.932	 5.00000E+00	 0.00000E+00	 0.00000E+00	 2.69225E+00	 5.85862E+02	 4.93400E-01	 1.38563E-02	 4.93507E-01	 9.33465E-03	-4.45292E-02	 4.43400E+00	 2.39145E-01	 4.51499E-03	 2.64663E+01	 2.55663E+00	-1.09623E+00	 9.57322E-01
     0.936	 5.00000E+00	 0.00000E+00	 0.00000E+00	 2.69225E+00	 5.85862E+02	 4.93400E-01	 1.38563E-02	 4.93506E-01	 9.33462E-03	-4.45292E-02	 4.43400E+00	 2.39146E-01	 4.51499E-03	 2.64663E+01	 2.55662E+00	-1.09623E+00	 9.57322E-01
     0.940	 5.00000E+00	 0.00000E+00	 0.00000E+00	 2.69225E+00	 5.85862E+02	 4.93400E-01	 1.38563E-02	 4.93507E-01	 9.33465E-03	-4.45292E-02	 4.43400E+00	 2.39145E-01	 4.51499E-03	 2.64663E+01	 2.55663E+00	-1.09623E+00	 9.57322E-01
     0.944	 5.00000E+00	 0.00000E+00	 0.00000E+00	 2.69225E+00	 5.85862E+02	 4.93400E-01	 1.38563E-02	 4.93506E-01	 9.33462E-03	-4.45292E-02	 4.43400E+00	 2.39146E-01	 4.51499E-03	 2.64663E+01	 2.55662E+00	-1.09623E+00	 9.57322E-01
     0.948	 5.00000E+00	 0.00000E+00	 0.00000E+00	 2.69225E+00	 5.85862E+02	 4.93400E-01	 1.38563E-02	 4.93507E-01	 9.33465E-03	-4.45292E-02	 4.43400E+00	 2.39145E-01	 4.51499E-03	 2.64663E+01	 2.55663E+00	-1.09623E+00	 9.57322E-01
     0.952	 5.00000E+00	 0.00000E+00	 0.00000E+00	 2.69225E+00	 5.85862E+02	 4.93400E-01	 1.38563E-02	 4.93506E-01	 9.33462E-03	-4.45292E-02	 4.43400E+00	 2.39146E-01	 4.51499E-03	 2.64663E+01	 2.55662E+00	-1.09623E+00	 9.57322E-01
     0.956	 5.00000E+00	 0.00000E+00	 0.00000E+00	 2.69225E+00	 5.85862E+02	 4.93400E-01	 1.38563E-02	 4.93506E-01	 9.33463E-03	-4.45292E-02	 4.43400E+00	 2.39146E-01	 4.51499E-03	 2.64663E+01	 2.55662E+00	-1.09623E+00	 9.57323E-01
     0.960	 5.00000E+00	 0.00000E+00	 0.00000E+00	 2.69225E+00	 5.85862E+02	 4.93400E-01	 1.38563E-02	 4.93506E-01	 9.33464E-03	-4.45292E-02	 4.43400E+00	 2.39146E-01	 4.51499E-03	 2.64663E+01	 2.55662E+00	-1.09623E+00	 9.57322E-01
     0.964	 5.00000E+00	 0.00000E+00	 0.00000E+00	 2.69225E+00	 5.85862E+02	 4.93400E-01	 1.38563E-02	 4.93506E-01	 9.33464E-03	-4.45292E-02	 4.43400E+00	 2.39146E-01	 4.51499E-03	 2.64663E+01	 2.55662E+00	-1.09623E+00	 9.57322E-01
     0.968	 5.00000E+00	 0.00000E+00	 0.00000E+00	 2.69225E+00	 5.85862E+02	 4.93400E-01	 1.38563E-02	 4.93506E-01	 9.33463E-03	-4.45292E-02	 4.43400E+00	 2.39146E-01	 4.51499E-03	 2.64663E+01	 2.55662E+00	-1.09623E+00	 9.57322E-01
     0.972	 5.00000E+00	 0.00000E+00	 0.00000E+00	 2.69225E+00	 5.85862E+02	 4.93400E-01	 1.38563E-02	 4.93506E-01	 9.33463E-03	-4.45292E-02	 4.43400E+00	 2.39146E-01	 4.51499E-03	 2.64663E+01	 2.55662E+00	-1.09623E+00	 9.57323E-01
     0.976	 5.00000E+00	 0.00000E+00	 0.00000E+00	 2.69225E+00	 5.85862E+02	 4.93400E-01	 1.38563E-02	 4.93506E-01	 9.33464E-03	-4.45292E-02	 4.43400E+00	 2.39146E-01	 4.51499E-03	 2.64663E+01	 2.55662E+00	-1.09623E+00	 9.57322E-01
     0.980	 5.00000E+00	 0.00000E+00	 0.00000E+00	 2.69225E+00	 5.85862E+02	 4.93400E-01	 1.38563E-02	 4.93506E-01	 9.33464E-03	-4.45292E-02	 4.43400E+00	 2.39146E-01	 4.51499E-03	 2.64663E+01	 2.55662E+00	-1.09623E+00	 9.57322E-01
     0.984	 5.00000E+00	 0.00000E+00	 0.00000E+00	 2.69225E+00	 5.85862E+02	 4.93400E-01	 1.38563E-02	 4.93506E-01	 9.33463E-03	-4.45292E-02	 4.43400E+00	 2.39146E-01	 4.51499E-03	 2.64663E+01	 2.55662E+00	-1.09623E+00	 9.57322E-01
     0.988	 5.00000E+00	 0.00000E+00	 0.00000E+00	 2.69225E+00	 5.85862E+02	 4.93400E-01	 1.38563E-02	 4.93506E-01	 9.33463E-03	-4.45292E-02	 4.43400E+00	 2.39146E-01	 4.51499E-03	 2.64663E+01	 2.55662E+00	-1.09623E+00	 9.57323E-01
     0.992	 5.00000E+00	 0.00000E+00	 0.00000E+00	 2.69225E+00	 5.85862E+02	 4.93400E-01	 1.38563E-02	 4.93506E-01	 9.33462E-03	-4.45292E-02	 4.43400E+00	 2.39146E-01	 4.51499E-03	 2.64663E+01	 2.55662E+00	-1.09623E+00	 9.57323E-01
     0.996	 5.00000E+00	 0.00000E+00	 0.00000E+00	 2.69225E+00	 5.85862E+02	 4.93400E-01	 1.38563E-02	 4.93506E-01	 9.33463E-03	-4.45292E-02	 4.43400E+00	 2.39146E-01	 4.51499E-03	 2.64663E+01	 2.55662E+00	-1.09623E+00	 9.57323E-01
     1.000	 5.00000E+00	 0.00000E+00	 0.00000E+00	 2.69225E+00	 5.85862E+02	 4.93400E-01	 1.38563E-02	 4.93506E-01	 9.33464E-03	-4.45292E-02	 4.43400E+00	 2.39146E-01	 4.51499E-03	 2.64663E+01	 2.55662E+00	-1.09623E+00	 9.57322E-01
     1.004	 5.00000E+00	 0.00000E+00	 0.00000E+00	 2.69225E+00	 5.85862E+02	 4.93400E-01	 1.38563E-02	 4.93506E-01	 9.33463E-03	-4.45292E-02	 4.43400E+00	 2.39146E-01	 4.51499E-03	 2.64663E+01	 2.55662E+00	-1.09623E+00	 9.57323E-01
     1.008	 5.00000E+00	 0.00000E+00	 0.00000E+00	 2.69225E+00	 5.85862E+02	 4.93400E-01	 1.38563E-02	 4.93506E-01	 9.33462E-03	-4.45292E-02	 4.43400E+00	 2.39146E-01	 4.51499E-03	 2.64663E+01	 2.55662E+00	-1.09623E+00	 9.57323E-01
     1.012	 5.00000E+00	 0.00000E+00	 0.00000E+00	 2.69225E+00	 5.85862E+02	 4.93400E-01	 1.38563E-02	 4.93507E-01	 9.33465E-03	-4.45292E-02	 4.43400E+00	 2.39145E-01	 4.51499E-03	 2.64663E+01	 2.55663E+00	-1.09623E+00	 9.57323E-01
     1.016	 5.00000E+00	 0.00000E+00	 0.00000E+00	 2.69225E+00	 5.85862E+02	 4.93400E-01	 1.38563E-02	 4.93506E-01	 9.33462E-03	-4.45292E-02	 4.43400E+00	 2.39146E-01	 4.51499E-03	 2.64663E+01	 2.55662E+00	-1.09623E+00	 9.57322E-01
     1.020	 5.00000E+00	 0.00000E+00	 0.00000E+00	 2.69225E+00	 5.85862E+02	 4.93400E-01	 1.38563E-02	 4.93507E-01	 9.33465E-03	-4.45292E-02	 4.43400E+00	 2.39145E-01	 4.51499E-03	 2.64663E+01	 2.55663E+00	-1.09623E+00	 9.57322E-01
     1.024	 5.00000E+00	 0.00000E+00	 0.00000E+00	 2.69225E+00	 5.85862E+02	 4.93400E-01	 1.38563E-02	 4.93506E-01	 9.33462E-03	-4.45292E-02	 4.43400E+00	 2.39146E-01	 4.51499E-03	 2.64663E+01	 2.55662E+00	-1.09623E+00	 9.57322E-01
     1.028	 5.00000E+00	 0.00000E+00	 0.00000E+00	 2.69225E+00	 5.85862E+02	 4.93400E-01	 1.38563E-02	 4.93507E-01	 9.33465E-03	-4.45292E-02	 4.43400E+00	 2.39145E-01	 4.51499E-03	 2.64663E+01	 2.55663E+00	-1.09623E+00	 9.57323E-01
     1.032	 5.00000E+00	 0.00000E+00	 0.00000E+00	 2.69225E+00	 5.85862E+02	 4.93400E-01	 1.38563E-02	 4.93506E-01	 9.33461E-03	-4.45292E-02	 4.43400E+00	 2.39146E-01	 4.51499E-03	 2.64663E+01	 2.55662E+00	-1.09623E+00	 9.57323E-01
     1.036	 5.00000E+00	 0.00000E+00	 0.00000E+00	 2.69225E+00	 5.85862E+02	 4.93400E-01	 1.38563E-02	 4.93507E-01	 9.33465E-03	-4.45292E-02	 4.43400E+00	 2.39145E-01	 4.51499E-03	 2.64663E+01	 2.55663E+00	-1.09623E+00	 9.57323E-01
     1.040	 5.00000E+00	 0.00000E+00	 0.00000E+00	 2.69225E+00	 5.85862E+02	 4.93400E-01	 1.38563E-02	 4.93506E-01	 9.33463E-03	-4.45292E-02	 4.43400E+00	 2.39146E-01	 4.51499E-03	 2.64663E+01	 2.55662E+00	-1.09623E+00	 9.57322E-01
     1.044	 5.00000E+00	 0.00000E+00	 0.00000E+00	 2.69225E+00	 5.85862E+02	 4.93400E-01	 1.38563E-02	 4.93506E-01	 9.33463E-03	-4.45292E-02	 4.43400E+00	 2.39146E-01	 4.51499E-03	 2.64663E+01	 2.55662E+00	-1.09623E+00	 9.57323E-01
     1.048	 5.00000E+00	 0.00000E+00	 0.00000E+00	 2.69225E+00	 5.85862E+02	 4.93400E-01	 1.38563E-02	 4.93506E-01	 9.33462E-03	-4.45292E-02	 4.43400E+00	 2.39146E-01	 4.51499E-03	 2.64663E+01	 2.55662E+00	-1.09623E+00	 9.57323E-01
     1.052	 5.00000E+00	 0.00000E+00	 0.00000E+00	 2.69225E+00	 5.85862E+02	 4.93400E-01	 1.38563E-02	 4.93506E-01	 9.33463E-03	-4.45292E-02	 4.43400E+00	 2.39146E-01	 4.51499E-03	 2.64663E+01	 2.55662E+00	-1.09623E+00	 9.57323E-01
     1.056	 5.00000E+00	 0.00000E+00	 0.00000E+00	 2.69225E+00	 5.85862E+02	 4.93400E-01	 1.38563E-02	 4.93506E-01	 9.33463E-03	-4.45292E-02	 4.43400E+00	 2.39146E-01	 4.51499E-03	 2.64663E+01	 2.55662E+00	-1.09623E+00	 9.57323E-01
     1.060	 5.00000E+00	 0.00000E+00	 0.00000E+00	 2.69225E+00	 5.85862E+02	 4.93400E-01	 1.38563E-02	 4.93506E-01	 9.33462E-03	-4.45292E-02	 4.43400E+00	 2.39146E-01	 4.51499E-03	 2.64663E+01	 2.55662E+00	-1.09623E+00	 9.57323E-01
     1.064	 5.00000E+00	 0.00000E+00	 0.00000E+00	 2.69225E+00	 5.85862E+02	 4.93400E-01	 1.38563E-02	 4.93507E-01	 9.33465E-03	-4.45292E-02	 4.43400E+00	 2.39145E-01	 4.51499E-03	 2.64663E+01	 2.55663E+00	-1.09623E+00	 9.57323E-01
     1.068	 5.00000E+00	 0.00000E+00	 0.00000E+00	 2.69225E+00	 5.85862E+02	 4.93400E-01	 1.38563E-02	 4.93506E-01	 9.33462E-03	-4.45292E-02	 4.43400E+00	 2.39146E-01	 4.51499E-03	 2.64663E+01	 2.55662E+00	-1.09623E+00	 9.57323E-01
     1.072	 5.00000E+00	 0.00000E+00	 0.00000E+00	 2.69225E+00	 5.85862E+02	 4.93400E-01	 1.38563E-02	 4.93507E-01	 9.33465E-03	-4.45292E-02	 4.43400E+00	 2.39145E-01	 4.51499E-03	 2.64663E+01	 2.55663E+00	-1.09623E+00	 9.57322E-01
     1.076	 5.00000E+00	 0.00000E+00	 0.00000E+00	 2.69225E+00	 5.85862E+02	 4.93400E-01	 1.38563E-02	 4.93506E-01	 9.33462E-03	-4.45292E-02	 4.43400E+00	 2.39146E-01	 4.51499E-03	 2.64663E+01	 2.55662E+00	-1.09623E+00	 9.57323E-01
     1.080	 5.00000E+00	 0.00000E+00	 0.00000E+00	 2.69225E+00	 5.85862E+02	 4.93400E-01	 1.38563E-02	 4.93506E-01	 9.33463E-03	-4.45292E-02	 4.43400E+00	 2.39146E-01	 4.51499E-03	 2.64663E+01	 2.55662E+00	-1.09623E+00	 9.57323E-01
     1.084	 5.00000E+00	 0.00000E+00	 0.00000E+00	 2.69225E+00	 5.85862E+02	 4.93400E-01	 1.38563E-02	 4.93506E-01	 9.33464E-03	-4.45292E-02	 4.43400E+00	 2.39146E-01	 4.51499E-03	 2.64663E+01	 2.55662E+00	-1.09623E+00	 9.57322E-01
     1.088	 5.00000E+00	 0.00000E+00	 0.00000E+00	 2.69225E+00	 5.85862E+02	 4.93400E-01	 1.38563E-02	 4.93506E-01	 9.33463E-03	-4.45292E-02	 4.43400E+00	 2.39146E-01	 4.51499E-03	 2.64663E+01	 2.55662E+00	-1.09623E+00	 9.57323E-01
     1.092	 5.00000E+00	 0.00000E+00	 0.00000E+00	 2.69225E+00	 5.85862E+02	 4.93400E-01	 1.38563E-02	 4.93506E-01	 9.33462E-03	-4.45292E-02	 4.43400E+00	 2.39146E-01	 4.51499E-03	 2.64663E+01	 2.55662E+00	-1.09623E+00	 9.57323E-01
     1.096	 5.00000E+00	 0.00000E+00	 0.00000E+00	 2.69225E+00	 5.85862E+02	 4.93400E-01	 1.38563E-02	 4.93507E-01	 9.33465E-03	-4.45292E-02	 4.43400E+00	 2.39145E-01	 4.51499E-03	 2.64663E+01	 2.55663E+00	-1.09623E+00	 9.57322E-01
     1.100	 5.00000E+00	 0.00000E+00	 0.00000E+00	 2.69225E+00	 5.85862E+02	 4.93400E-01	 1.38563E-02	 4.93506E-01	 9.33462E-03	-4.45292E-02	 4.43400E+00	 2.39146E-01	 4.51499E-03	 2.64663E+01	 2.55662E+00	-1.09623E+00	 9.57322E-01
     1.104	 5.00000E+00	 0.00000E+00	 0.00000E+00	 2.69225E+00	 5.85862E+02	 4.93400E-01	 1.38563E-02	 4.93507E-01	 9.33465E-03	-4.45292E-02	 4.43400E+00	 2.39145E-01	 4.51499E-03	 2.64663E+01	 2.55663E+00	-1.09623E+00	 9.57323E-01
     1.108	 5.00000E+00	 0.00000E+00	 0.00000E+00	 2.69225E+00	 5.85862E+02	 4.93400E-01	 1.38563E-02	 4.93506E-01	 9.33462E-03	-4.45292E-02	 4.43400E+00	 2.39146E-01	 4.51499E-03	 2.64663E+01	 2.55662E+00	-1.09623E+00	 9.57322E-01
     1.112	 5.00000E+00	 0.00000E+00	 0.00000E+00	 2.69225E+00	 5.85862E+02	 4.93400E-01	 1.38563E-02	 4.93507E-01	 9.33465E-03	-4.45292E-02	 4.43400E+00	 2.39145E-01	 4.51499E-03	 2.64663E+01	 2.55663E+00	-1.09623E+00	 9.57322E-01
     1.116	 5.00000E+00	 0.00000E+00	 0.00000E+00	 2.69225E+00	 5.85862E+02	 4.93400E-01	 1.38563E-02	 4.93506E-01	 9.33462E-03	-4.45292E-02	 4.43400E+00	 2.39146E-01	 4.51499E-03	 2.64663E+01	 2.55662E+00	-1.09623E+00	 9.57322E-01
     1.120	 5.00000E+00	 0.00000E+00	 0.00000E+00	 2.69225E+00	 5.85862E+02	 4.93400E-01	 1.38563E-02	 4.93507E-01	 9.33465E-03	-4.45292E-02	 4.43400E+00	 2.39145E-01	 4.51499E-03	 2.64663E+01	 2.55663E+00	-1.09623E+00	 9.57323E-01
     1.124	 5.00000E+00	 0.00000E+00	 0.00000E+00	 2.69225E+00	 5.85862E+02	 4.93400E-01	 1.38563E-02	 4.93506E-01	 9.33463E-03	-4.45292E-02	 4.43400E+00	 2.39146E-01	 4.51499E-03	 2.64663E+01	 2.55662E+00	-1.09623E+00	 9.57322E-01
     1.128	 5.00000E+00	 0.00000E+00	 0.00000E+00	 2.69225E+00	 5.85862E+02	 4.93400E-01	 1.38563E-02	 4.93507E-01	 9.33465E-03	-4.45292E-02	 4.43400E+00	 2.39145E-01	 4.51499E-03	 2.64663E+01	 2.55663E+00	-1.09623E+00	 9.57322E-01
     1.132	 5.00000E+00	 0.00000E+00	 0.00000E+00	 2.69225E+00	 5.85862E+02	 4.93400E-01	 1.38563E-02	 4.93506E-01	 9.33464E-03	-4.45292E-02	 4.43400E+00	 2.39146E-01	 4.51499E-03	 2.64663E+01	 2.55662E+00	-1.09623E+00	 9.57322E-01
     1.136	 5.00000E+00	 0.00000E+00	 0.00000E+00	 2.69225E+00	 5.85862E+02	 4.93400E-01	 1.38563E-02	 4.93507E-01	 9.33465E-03	-4.45292E-02	 4.43400E+00	 2.39145E-01	 4.51499E-03	 2.64663E+01	 2.55663E+00	-1.09623E+00	 9.57322E-01
     1.140	 5.00000E+00	 0.00000E+00	 0.00000E+00	 2.69225E+00	 5.85862E+02	 4.93400E-01	 1.38563E-02	 4.93506E-01	 9.33463E-03	-4.45292E-02	 4.43400E+00	 2.39146E-01	 4.51499E-03	 2.64663E+01	 2.55662E+00	-1.09623E+00	 9.57323E-01
     1.144	 5.00000E+00	 0.00000E+00	 0.00000E+00	 2.69225E+00	 5.85862E+02	 4.93400E-01	 1.38563E-02	 4.93507E-01	 9.33465E-03	-4.45292E-02	 4.43400E+00	 2.39145E-01	 4.51499E-03	 2.64663E+01	 2.55663E+00	-1.09623E+00	 9.57322E-01
     1.148	 5.00000E+00	 0.00000E+00	 0.00000E+00	 2.69225E+00	 5.85862E+02	 4.93400E-01	 1.38563E-02	 4.93506E-01	 9.33464E-03	-4.45292E-02	 4.43400E+00	 2.39146E-01	 4.51499E-03	 2.64663E+01	 2.55662E+00	-1.09623E+00	 9.57322E-01
     1.152	 5.00000E+00	 0.00000E+00	 0.00000E+00	 2.69225E+00	 5.85862E+02	 4.93400E-01	 1.38563E-02	 4.93507E-01	 9.33465E-03	-4.45292E-02	 4.43400E+00	 2.39145E-01	 4.51499E-03	 2.64663E+01	 2.55663E+00	-1.09623E+00	 9.57323E-01
     1.156	 5.00000E+00	 0.00000E+00	 0.00000E+00	 2.69225E+00	 5.85862E+02	 4.93400E-01	 1.38563E-02	 4.93506E-01	 9.33463E-03	-4.45292E-02	 4.43400E+00	 2.39146E-01	 4.51499E-03	 2.64663E+01	 2.55662E+00	-1.09623E+00	 9.57322E-01
     1.160	 5.00000E+00	 0.00000E+00	 0.00000E+00	 2.69225E+00	 5.85862E+02	 4.93400E-01	 1.38563E-02	 4.93507E-01	 9.33466E-03	-4.45292E-02	 4.43400E+00	 2.39145E-01	 4.51499E-03	 2.64663E+01	 2.55663E+00	-1.09623E+00	 9.57322E-01
     1.164	 5.00000E+00	 0.00000E+00	 0.00000E+00	 2.69225E+00	 5.85862E+02	 4.93400E-01	 1.38563E-02	 4.93506E-01	 9.33463E-03	-4.45292E-02	 4.43400E+00	 2.39146E-01	 4.51499E-03	 2.64663E+01	 2.55662E+00	-1.09623E+00	 9.57322E-01
     1.168	 5.00000E+00	 0.00000E+00	 0.00000E+00	 2.69225E+00	 5.85862E+02	 4.93400E-01	 1.38563E-02	 4.93507E-01	 9.33465E-03	-4.45292E-02	 4.43400E+00	 2.39145E-01	 4.51499E-03	 2.64663E+01	 2.55663E+00	-1.09623E+00	 9.57322E-01
     1.172	 5.00000E+00	 0.00000E+00	 0.00000E+00	 2.69225E+00	 5.85862E+02	 4.93400E-01	 1.38563E-02	 4.93506E-01	 9.33463E-03	-4.45292E-02	 4.43400E+00	 2.39146E-01	 4.51499E-03	 2.64663E+01	 2.55662E+00	-1.09623E+00	 9.57322E-01
     1.176	 5.00000E+00	 0.00000E+00	 0.00000E+00	 2.69225E+00	 5.85862E+02	 4.93400E-01	 1.38563E-02	 4.93507E-01	 9.33465E-03	-4.45292E-02	 4.43400E+00	 2.39145E-01	 4.51499E-03	 2.64663E+01	 2.55663E+00	-1.09623E+00	 9.57323E-01
     1.180	 5.00000E+00	 0.00000E+00	 0.00000E+00	 2.69225E+00	 5.85862E+02	 4.93400E-01	 1.38563E-02	 4.93506E-01	 9.33462E-03	-4.45292E-02	 4.43400E+00	 2.39146E-01	 4.51499E-03	 2.64663E+01	 2.55662E+00	-1.09623E+00	 9.57322E-01
     1.184	 5.00000E+00	 0.00000E+00	 0.00000E+00	 2.69225E+00	 5.85862E+02	 4.93400E-01	 1.38563E-02	 4.93507E-01	 9.33466E-03	-4.45292E-02	 4.43400E+00	 2.39145E-01	 4.51499E-03	 2.64663E+01	 2.55663E+00	-1.09623E+00	 9.57322E-01
     1.188	 5.00000E+00	 0.00000E+00	 0.00000E+00	 2.69225E+00	 5.85862E+02	 4.93400E-01	 1.38563E-02	 4.93506E-01	 9.33462E-03	-4.45292E-02	 4.43400E+00	 2.39146E-01	 4.51499E-03	 2.64663E+01	 2.55662E+00	-1.09623E+00	 9.57322E-01
     1.192	 5.00000E+00	 0.00000E+00	 0.00000E+00	 2.69225E+00	 5.85862E+02	 4.93400E-01	 1.38563E-02	 4.93506E-01	 9.33464E-03	-4.45292E-02	 4.43400E+00	 2.39145E-01	 4.51499E-03	 2.64663E+01	 2.55663E+00	-1.09623E+00	 9.57323E-01
     1.196	 5.00000E+00	 0.00000E+00	 0.00000E+00	 2.69225E+00	 5.85862E+02	 4.93400E-01	 1.38563E-02	 4.93506E-01	 9.33464E-03	-4.45292E-02	 4.43400E+00	 2.39146E-01	 4.51499E-03	 2.64663E+01	 2.55662E+00	-1.09623E+00	 9.57322E-01
     1.200	 5.00000E+00	 0.00000E+00	 0.00000E+00	 2.69225E+00	 5.85862E+02	 4.93400E-01	 1.38563E-02	 4.93507E-01	 9.33465E-03	-4.45292E-02	 4.43400E+00	 2.39145E-01	 4.51499E-03	 2.64663E+01	 2.55663E+00	-1.09623E+00	 9.57322E-01
     1.204	 5.00000E+00	 0.00000E+00	 0.00000E+00	 2.69225E+00	 5.85862E+02	 4.93400E-01	 1.38563E-02	 4.93506E-01	 9.33463E-03	-4.45292E-02	 4.43400E+00	 2.39146E-01	 4.51499E-03	 2.64663E+01	 2.55662E+00	-1.09623E+00	 9.57322E-01
     1.208	 5.00000E+00	 0.00000E+00	 0.00000E+00	 2.69225E+00	 5.85862E+02	 4.93400E-01	 1.38563E-02	 4.93507E-01	 9.33465E-03	-4.45292E-02	 4.43400E+00	 2.39145E-01	 4.51499E-03	 2.64663E+01	 2.55663E+00	-1.09623E+00	 9.57323E-01
     1.212	 5.00000E+00	 0.00000E+00	 0.00000E+00	 2.69225E+00	 5.85862E+02	 4.93400E-01	 1.38563E-02	 4.93506E-01	 9.33463E-03	-4.45292E-02	 4.43400E+00	 2.39146E-01	 4.51499E-03	 2.64663E+01	 2.55662E+00	-1.09623E+00	 9.57323E-01
     1.216	 5.00000E+00	 0.00000E+00	 0.00000E+00	 2.69225E+00	 5.85862E+02	 4.93400E-01	 1.38563E-02	 4.93506E-01	 9.33464E-03	-4.45292E-02	 4.43400E+00	 2.39146E-01	 4.51499E-03	 2.64663E+01	 2.55662E+00	-1.09623E+00	 9.57322E-01
     1.220	 5.00000E+00	 0.00000E+00	 0.00000E+00	 2.69225E+00	 5.85862E+02	 4.93400E-01	 1.38563E-02	 4.93507E-01	 9.33465E-03	-4.45292E-02	 4.43400E+00	 2.39145E-01	 4.51499E-03	 2.64663E+01	 2.55663E+00	-1.09623E+00	 9.57323E-01
     1.224	 5.00000E+00	 0.00000E+00	 0.00000E+00	 2.69225E+00	 5.85862E+02	 4.93400E-01	 1.38563E-02	 4.93506E-01	 9.33463E-03	-4.45292E-02	 4.43400E+00	 2.39146E-01	 4.51499E-03	 2.64663E+01	 2.55662E+00	-1.09623E+00	 9.57323E-01
     1.228	 5.00000E+00	 0.00000E+00	 0.00000E+00	 2.69225E+00	 5.85862E+02	 4.93400E-01	 1.38563E-02	 4.93507E-01	 9.33465E-03	-4.45292E-02	 4.43400E+00	 2.39145E-01	 4.51499E-03	 2.64663E+01	 2.55663E+00	-1.09623E+00	 9.57322E-01
     1.232	 5.00000E+00	 0.00000E+00	 0.00000E+00	 2.69225E+00	 5.85862E+02	 4.93400E-01	 1.38563E-02	 4.93506E-01	 9.33463E-03	-4.45292E-02	 4.43400E+00	 2.39146E-01	 4.51499E-03	 2.64663E+01	 2.55662E+00	-1.09623E+00	 9.57322E-01
     1.236	 5.00000E+00	 0.00000E+00	 0.00000E+00	 2.69225E+00	 5.85862E+02	 4.93400E-01	 1.38563E-02	 4.93506E-01	 9.33463E-03	-4.45292E-02	 4.43400E+00	 2.39146E-01	 4.51499E-03	 2.64663E+01	 2.55662E+00	-1.09623E+00	 9.57323E-01
     1.240	 5.00000E+00	 0.00000E+00	 0.00000E+00	 2.69225E+00	 5.85862E+02	 4.93400E-01	 1.38563E-02	 4.93506E-01	 9.33462E-03	-4.45292E-02	 4.43400E+00	 2.39146E-01	 4.51499E-03	 2.64663E+01	 2.55662E+00	-1.09623E+00	 9.57323E-01
     1.244	 5.00000E+00	 0.00000E+00	 0.00000E+00	 2.69225E+00	 5.85862E+02	 4.93400E-01	 1.38563E-02	 4.93507E-01	 9.33466E-03	-4.45292E-02	 4.43400E+00	 2.39145E-01	 4.51499E-03	 2.64663E+01	 2.55663E+00	-1.09623E+00	 9.57322E-01
     1.248	 5.00000E+00	 0.00000E+00	 0.00000E+00	 2.69225E+00	 5.85862E+02	 4.93400E-01	 1.38563E-02	 4.93506E-01	 9.33462E-03	-4.45292E-02	 4.43400E+00	 2.39146E-01	 4.51499E-03	 2.64663E+01	 2.55662E+00	-1.09623E+00	 9.57322E-01
     1.252	 5.00000E+00	 0.00000E+00	 0.00000E+00	 2.69225E+00	 5.85862E+02	 4.93400E-01	 1.38563E-02	 4.93506E-01	 9.33464E-03	-4.45292E-02	 4.43400E+00	 2.39145E-01	 4.51499E-03	 2.64663E+01	 2.55663E+00	-1.09623E+00	 9.57323E-01
     1.256	 5.00000E+00	 0.00000E+00	 0.00000E+00	 2.69225E+00	 5.85861E+02	 4.93400E-01	 1.38563E-02	 4.93506E-01	 9.33464E-03	-4.45292E-02	 4.43400E+00	 2.39146E-01	 4.51499E-03	 2.64663E+01	 2.55662E+00	-1.09623E+00	 9.57322E-01
     1.260	 5.00000E+00	 0.00000E+00	 0.00000E+00	 2.69225E+00	 5.85862E+02	 4.93400E-01	 1.38563E-02	 4.93507E-01	 9.33465E-03	-4.45292E-02	 4.43400E+00	 2.39145E-01	 4.51499E-03	 2.64663E+01	 2.55663E+00	-1.09623E+00	 9.57322E-01
     1.264	 5.00000E+00	 0.00000E+00	 0.00000E+00	 2.69225E+00	 5.85862E+02	 4.93400E-01	 1.38563E-02	 4.93506E-01	 9.33463E-03	-4.45292E-02	 4.43400E+00	 2.39146E-01	 4.51499E-03	 2.64663E+01	 2.55662E+00	-1.09623E+00	 9.57322E-01
     1.268	 5.00000E+00	 0.00000E+00	 0.00000E+00	 2.69225E+00	 5.85861E+02	 4.93400E-01	 1.38563E-02	 4.93507E-01	 9.33466E-03	-4.45292E-02	 4.43400E+00	 2.39145E-01	 4.51499E-03	 2.64663E+01	 2.55663E+00	-1.09623E+00	 9.57322E-01
     1.272	 5.00000E+00	 0.00000E+00	 0.00000E+00	 2.69225E+00	 5.85862E+02	 4.93400E-01	 1.38563E-02	 4.93506E-01	 9.33464E-03	-4.45292E-02	 4.43400E+00	 2.39146E-01	 4.51499E-03	 2.64663E+01	 2.55662E+00	-1.09623E+00	 9.57322E-01
     1.276	 5.00000E+00	 0.00000E+00	 0.00000E+00	 2.69225E+00	 5.85862E+02	 4.93400E-01	 1.38563E-02	 4.93507E-01	 9.33465E-03	-4.45292E-02	 4.43400E+00	 2.39145E-01	 4.51499E-03	 2.64663E+01	 2.55663E+00	-1.09623E+00	 9.57322E-01
     1.280	 5.00000E+00	 0.00000E+00	 0.00000E+00	 2.69225E+00	 5.85862E+02	 4.93400E-01	 1.38563E-02	 4.93506E-01	 9.33464E-03	-4.45292E-02	 4.43400E+00	 2.39146E-01	 4.51499E-03	 2.64663E+01	 2.55662E+00	-1.09623E+00	 9.57322E-01
     1.284	 5.00000E+00	 0.00000E+00	 0.00000E+00	 2.69225E+00	 5.85862E+02	 4.93400E-01	 1.38563E-02	 4.93506E-01	 9.33464E-03	-4.45292E-02	 4.43400E+00	 2.39145E-01	 4.51499E-03	 2.64663E+01	 2.55663E+00	-1.09623E+00	 9.57323E-01
     1.288	 5.00000E+00	 0.00000E+00	 0.00000E+00	 2.69225E+00	 5.85862E+02	 4.93400E-01	 1.38563E-02	 4.93506E-01	 9.33463E-03	-4.45292E-02	 4.43400E+00	 2.39146E-01	 4.51499E-03	 2.64663E+01	 2.55662E+00	-1.09623E+00	 9.57322E-01
     1.292	 5.00000E+00	 0.00000E+00	 0.00000E+00	 2.69225E+00	 5.85862E+02	 4.93400E-01	 1.38563E-02	 4.93507E-01	 9.33465E-03	-4.45292E-02	 4.43400E+00	 2.39145E-01	 4.51499E-03	 2.64663E+01	 2.55663E+00	-1.09623E+00	 9.57323E-01
     1.296	 5.00000E+00	 0.00000E+00	 0.00000E+00	 2.69225E+00	 5.85862E+02	 4.93400E-01	 1.38563E-02	 4.93506E-01	 9.33464E-03	-4.45292E-02	 4.43400E+00	 2.39146E-01	 4.51499E-03	 2.64663E+01	 2.55662E+00	-1.09623E+00	 9.57322E-01
     1.300	 5.00000E+00	 0.00000E+00	 0.00000E+00	 2.69225E+00	 5.85862E+02	 4.93400E-01	 1.38563E-02	 4.93506E-01	 9.33464E-03	-4.45292E-02	 4.43400E+00	 2.39146E-01	 4.51499E-03	 2.64663E+01	 2.55662E+00	-1.09623E+00	 9.57322E-01
     1.304	 5.00000E+00	 0.00000E+00	 0.00000E+00	 2.69225E+00	 5.85862E+02	 4.93400E-01	 1.38563E-02	 4.93507E-01	 9.33465E-03	-4.45292E-02	 4.43400E+00	 2.39145E-01	 4.51499E-03	 2.64663E+01	 2.55663E+00	-1.09623E+00	 9.57322E-01
     1.308	 5.00000E+00	 0.00000E+00	 0.00000E+00	 2.69225E+00	 5.85862E+02	 4.93400E-01	 1.38563E-02	 4.93506E-01	 9.33464E-03	-4.45292E-02	 4.43400E+00	 2.39146E-01	 4.51499E-03	 2.64663E+01	 2.55662E+00	-1.09623E+00	 9.57322E-01
     1.312	 5.00000E+00	 0.00000E+00	 0.00000E+00	 2.69225E+00	 5.85862E+02	 4.93400E-01	 1.38563E-02	 4.93506E-01	 9.33464E-03	-4.45292E-02	 4.43400E+00	 2.39146E-01	 4.51499E-03	 2.64663E+01	 2.55662E+00	-1.09623E+00	 9.57322E-01
     1.316	 5.00000E+00	 0.00000E+00	 0.00000E+00	 2.69225E+00	 5.85862E+02	 4.93400E-01	 1.38563E-02	 4.93507E-01	 9.33465E-03	-4.45292E-02	 4.43400E+00	 2.39145E-01	 4.51499E-03	 2.64663E+01	 2.55663E+00	-1.09623E+00	 9.57322E-01
     1.320	 5.00000E+00	 0.00000E+00	 0.00000E+00	 2.69225E+00	 5.85862E+02	 4.93400E-01	 1.38563E-02	 4.93506E-01	 9.33464E-03	-4.45292E-02	 4.43400E+00	 2.39146E-01	 4.51499E-03	 2.64663E+01	 2.55662E+00	-1.09623E+00	 9.57322E-01
     1.324	 5.00000E+00	 0.00000E+00	 0.00000E+00	 2.69225E+00	 5.85862E+02	 4.93400E-01	 1.38563E-02	 4.93506E-01	 9.33464E-03	-4.45292E-02	 4.43400E+00	 2.39146E-01	 4.51499E-03	 2.64663E+01	 2.55662E+00	-1.09623E+00	 9.57322E-01
     1.328	 5.00000E+00	 0.00000E+00	 0.00000E+00	 2.69225E+00	 5.85862E+02	 4.93400E-01	 1.38563E-02	 4.93506E-01	 9.33463E-03	-4.45292E-02	 4.43400E+00	 2.39146E-01	 4.51499E-03	 2.64663E+01	 2.55662E+00	-1.09623E+00	 9.57323E-01
     1.332	 5.00000E+00	 0.00000E+00	 0.00000E+00	 2.69225E+00	 5.85862E+02	 4.93400E-01	 1.38563E-02	 4.93506E-01	 9.33464E-03	-4.45292E-02	 4.43400E+00	 2.39145E-01	 4.51499E-03	 2.64663E+01	 2.55663E+00	-1.09623E+00	 9.57323E-01
     1.336	 5.00000E+00	 0.00000E+00	 0.00000E+00	 2.69225E+00	 5.85862E+02	 4.93400E-01	 1.38563E-02	 4.93506E-01	 9.33463E-03	-4.45292E-02	 4.43400E+00	 2.39146E-01	 4.51499E-03	 2.64663E+01	 2.55662E+00	-1.09623E+00	 9.57322E-01
     1.340	 5.00000E+00	 0.00000E+00	 0.00000E+00	 2.69225E+00	 5.85862E+02	 4.93400E-01	 1.38563E-02	 4.93507E-01	 9.33465E-03	-4.45292E-02	 4.43400E+00	 2.39145E-01	 4.51499E-03	 2.64663E+01	 2.55663E+00	-1.09623E+00	 9.57323E-01
     1.344	 5.00000E+00	 0.00000E+00	 0.00000E+00	 2.69225E+00	 5.85862E+02	 4.93400E-01	 1.38563E-02	 4.93506E-01	 9.33464E-03	-4.45292E-02	 4.43400E+00	 2.39146E-01	 4.51499E-03	 2.64663E+01	 2.55662E+00	-1.09623E+00	 9.57322E-01
     1.348	 5.00000E+00	 0.00000E+00	 0.00000E+00	 2.69225E+00	 5.85862E+02	 4.93400E-01	 1.38563E-02	 4.93507E-01	 9.33465E-03	-4.45292E-02	 4.43400E+00	 2.39145E-01	 4.51499E-03	 2.64663E+01	 2.55663E+00	-1.09623E+00	 9.57322E-01
     1.352	 5.00000E+00	 0.00000E+00	 0.00000E+00	 2.69225E+00	 5.85862E+02	 4.93400E-01	 1.38563E-02	 4.93506E-01	 9.33462E-03	-4.45292E-02	 4.43400E+00	 2.39146E-01	 4.51499E-03	 2.64663E+01	 2.55662E+00	-1.09623E+00	 9.57322E-01
     1.356	 5.00000E+00	 0.00000E+00	 0.00000E+00	 2.69225E+00	 5.85862E+02	 4.93400E-01	 1.38563E-02	 4.93506E-01	 9.33464E-03	-4.45292E-02	 4.43400E+00	 2.39145E-01	 4.51499E-03	 2.64663E+01	 2.55663E+00	-1.09623E+00	 9.57323E-01
     1.360	 5.00000E+00	 0.00000E+00	 0.00000E+00	 2.69225E+00	 5.85862E+02	 4.93400E-01	 1.38563E-02	 4.93506E-01	 9.33462E-03	-4.45292E-02	 4.43400E+00	 2.39146E-01	 4.51499E-03	 2.64663E+01	 2.55662E+00	-1.09623E+00	 9.57322E-01
[...]
    24.664	 2.46640E+01	 0.00000E+00	 0.00000E+00	 3.37552E+01	 9.41613E+02	 7.51709E-01	 5.51964E-01	 9.31682E-01	-4.12296E-02	-2.59193E-01	 4.43400E+00	 2.54594E-02	 8.72058E-03	 8.06994E+01	 2.67728E+00	-1.02555E+01	 1.21366E+00
    24.668	 2.46680E+01	 0.00000E+00	 0.00000E+00	 3.37599E+01	 9.41735E+02	 7.51673E-01	 5.52057E-01	 9.31706E-01	-4.12501E-02	-2.59210E-01	 4.43400E+00	 2.54525E-02	 8.72070E-03	 8.07121E+01	 2.67602E+00	-1.02575E+01	 1.21374E+00
    24.672	 2.46720E+01	 0.00000E+00	 0.00000E+00	 3.37646E+01	 9.41857E+02	 7.51636E-01	 5.52149E-01	 9.31731E-01	-4.12707E-02	-2.59227E-01	 4.43400E+00	 2.54456E-02	 8.72087E-03	 8.07248E+01	 2.67476E+00	-1.02595E+01	 1.21382E+00
    24.676	 2.46760E+01	 0.00000E+00	 0.00000E+00	 3.37693E+01	 9.41979E+02	 7.51599E-01	 5.52241E-01	 9.31755E-01	-4.12912E-02	-2.59243E-01	 4.43400E+00	 2.54388E-02	 8.72099E-03	 8.07375E+01	 2.67349E+00	-1.02615E+01	 1.21390E+00
    24.680	 2.46800E+01	 0.00000E+00	 0.00000E+00	 3.37740E+01	 9.42101E+02	 7.51563E-01	 5.52333E-01	 9.31779E-01	-4.13117E-02	-2.59260E-01	 4.43400E+00	 2.54319E-02	 8.72111E-03	 8.07501E+01	 2.67223E+00	-1.02635E+01	 1.21397E+00
    24.684	 2.46840E+01	 0.00000E+00	 0.00000E+00	 3.37787E+01	 9.42223E+02	 7.51526E-01	 5.52425E-01	 9.31803E-01	-4.13322E-02	-2.59277E-01	 4.43400E+00	 2.54250E-02	 8.72123E-03	 8.07628E+01	 2.67097E+00	-1.02654E+01	 1.21405E+00
    24.688	 2.46880E+01	 0.00000E+00	 0.00000E+00	 3.37834E+01	 9.42345E+02	 7.51489E-01	 5.52518E-01	 9.31827E-01	-4.13527E-02	-2.59293E-01	 4.43400E+00	 2.54182E-02	 8.72135E-03	 8.07755E+01	 2.66970E+00	-1.02674E+01	 1.21413E+00
    24.692	 2.46920E+01	 0.00000E+00	 0.00000E+00	 3.37881E+01	 9.42467E+02	 7.51453E-01	 5.52610E-01	 9.31851E-01	-4.13732E-02	-2.59310E-01	 4.43400E+00	 2.54113E-02	 8.72153E-03	 8.07882E+01	 2.66844E+00	-1.02694E+01	 1.21421E+00
    24.696	 2.46960E+01	 0.00000E+00	 0.00000E+00	 3.37928E+01	 9.42589E+02	 7.51416E-01	 5.52702E-01	 9.31875E-01	-4.13937E-02	-2.59327E-01	 4.43400E+00	 2.54045E-02	 8.72165E-03	 8.08009E+01	 2.66718E+00	-1.02714E+01	 1.21429E+00
    24.700	 2.47000E+01	 0.00000E+00	 0.00000E+00	 3.37975E+01	 9.42712E+02	 7.51379E-01	 5.52794E-01	 9.31899E-01	-4.14142E-02	-2.59343E-01	 4.43400E+00	 2.53976E-02	 8.72183E-03	 8.08136E+01	 2.66592E+00	-1.02734E+01	 1.21437E+00
    24.704	 2.47040E+01	 0.00000E+00	 0.00000E+00	 3.38022E+01	 9.42834E+02	 7.51342E-01	 5.52886E-01	 9.31924E-01	-4.14346E-02	-2.59360E-01	 4.43400E+00	 2.53907E-02	 8.72195E-03	 8.08263E+01	 2.66466E+00	-1.02754E+01	 1.21445E+00
    24.708	 2.47080E+01	 0.00000E+00	 0.00000E+00	 3.38069E+01	 9.42956E+02	 7.51306E-01	 5.52978E-01	 9.31948E-01	-4.14551E-02	-2.59377E-01	 4.43400E+00	 2.53839E-02	 8.72207E-03	 8.08390E+01	 2.66339E+00	-1.02774E+01	 1.21453E+00
    24.712	 2.47120E+01	 0.00000E+00	 0.00000E+00	 3.38116E+01	 9.43079E+02	 7.51269E-01	 5.53070E-01	 9.31972E-01	-4.14756E-02	-2.59393E-01	 4.43400E+00	 2.53770E-02	 8.72225E-03	 8.08517E+01	 2.66213E+00	-1.02794E+01	 1.21460E+00
    24.716	 2.47160E+01	 0.00000E+00	 0.00000E+00	 3.38163E+01	 9.43201E+02	 7.51232E-01	 5.53162E-01	 9.31996E-01	-4.14960E-02	-2.59410E-01	 4.43400E+00	 2.53702E-02	 8.72236E-03	 8.08644E+01	 2.66087E+00	-1.02814E+01	 1.21468E+00
    24.720	 2.47200E+01	 0.00000E+00	 0.00000E+00	 3.38210E+01	 9.43323E+02	 7.51196E-01	 5.53254E-01	 9.32020E-01	-4.15164E-02	-2.59427E-01	 4.43400E+00	 2.53634E-02	 8.72254E-03	 8.08771E+01	 2.65961E+00	-1.02834E+01	 1.21476E+00
    24.724	 2.47240E+01	 0.00000E+00	 0.00000E+00	 3.38257E+01	 9.43445E+02	 7.51159E-01	 5.53346E-01	 9.32045E-01	-4.15369E-02	-2.59443E-01	 4.43400E+00	 2.53565E-02	 8.72266E-03	 8.08898E+01	 2.65835E+00	-1.02854E+01	 1.21484E+00
    24.728	 2.47280E+01	 0.00000E+00	 0.00000E+00	 3.38305E+01	 9.43567E+02	 7.51122E-01	 5.53439E-01	 9.32069E-01	-4.15573E-02	-2.59460E-01	 4.43400E+00	 2.53497E-02	 8.72278E-03	 8.09026E+01	 2.65709E+00	-1.02873E+01	 1.21492E+00
    24.732	 2.47320E+01	 0.00000E+00	 0.00000E+00	 3.38351E+01	 9.43690E+02	 7.51086E-01	 5.53531E-01	 9.32093E-01	-4.15777E-02	-2.59476E-01	 4.43400E+00	 2.53429E-02	 8.72290E-03	 8.09153E+01	 2.65583E+00	-1.02893E+01	 1.21500E+00
    24.736	 2.47360E+01	 0.00000E+00	 0.00000E+00	 3.38398E+01	 9.43812E+02	 7.51049E-01	 5.53623E-01	 9.32117E-01	-4.15981E-02	-2.59493E-01	 4.43400E+00	 2.53361E-02	 8.72308E-03	 8.09280E+01	 2.65457E+00	-1.02913E+01	 1.21508E+00
    24.740	 2.47400E+01	 0.00000E+00	 0.00000E+00	 3.38445E+01	 9.43935E+02	 7.51013E-01	 5.53714E-01	 9.32141E-01	-4.16185E-02	-2.59510E-01	 4.43400E+00	 2.53292E-02	 8.72320E-03	 8.09407E+01	 2.65331E+00	-1.02933E+01	 1.21516E+00
    24.744	 2.47440E+01	 0.00000E+00	 0.00000E+00	 3.38492E+01	 9.44057E+02	 7.50976E-01	 5.53806E-01	 9.32166E-01	-4.16389E-02	-2.59526E-01	 4.43400E+00	 2.53224E-02	 8.72338E-03	 8.09534E+01	 2.65205E+00	-1.02953E+01	 1.21523E+00
    24.748	 2.47480E+01	 0.00000E+00	 0.00000E+00	 3.38539E+01	 9.44179E+02	 7.50939E-01	 5.53898E-01	 9.32190E-01	-4.16593E-02	-2.59543E-01	 4.43400E+00	 2.53156E-02	 8.72350E-03	 8.09662E+01	 2.65079E+00	-1.02973E+01	 1.21531E+00
    24.752	 2.47520E+01	 0.00000E+00	 0.00000E+00	 3.38586E+01	 9.44302E+02	 7.50903E-01	 5.53990E-01	 9.32214E-01	-4.16798E-02	-2.59560E-01	 4.43400E+00	 2.53088E-02	 8.72362E-03	 8.09789E+01	 2.64953E+00	-1.02993E+01	 1.21539E+00
    24.756	 2.47560E+01	 0.00000E+00	 0.00000E+00	 3.38633E+01	 9.44424E+02	 7.50866E-01	 5.54082E-01	 9.32238E-01	-4.17002E-02	-2.59576E-01	 4.43400E+00	 2.53020E-02	 8.72380E-03	 8.09916E+01	 2.64827E+00	-1.03013E+01	 1.21547E+00
    24.760	 2.47600E+01	 0.00000E+00	 0.00000E+00	 3.38680E+01	 9.44547E+02	 7.50830E-01	 5.54174E-01	 9.32263E-01	-4.17205E-02	-2.59593E-01	 4.43400E+00	 2.52951E-02	 8.72391E-03	 8.10044E+01	 2.64702E+00	-1.03033E+01	 1.21555E+00
    24.764	 2.47640E+01	 0.00000E+00	 0.00000E+00	 3.38727E+01	 9.44669E+02	 7.50793E-01	 5.54266E-01	 9.32287E-01	-4.17409E-02	-2.59609E-01	 4.43400E+00	 2.52883E-02	 8.72403E-03	 8.10171E+01	 2.64576E+00	-1.03053E+01	 1.21563E+00
    24.768	 2.47680E+01	 0.00000E+00	 0.00000E+00	 3.38774E+01	 9.44792E+02	 7.50756E-01	 5.54358E-01	 9.32311E-01	-4.17612E-02	-2.59626E-01	 4.43400E+00	 2.52815E-02	 8.72421E-03	 8.10299E+01	 2.64450E+00	-1.03073E+01	 1.21571E+00
    24.772	 2.47720E+01	 0.00000E+00	 0.00000E+00	 3.38821E+01	 9.44914E+02	 7.50720E-01	 5.54450E-01	 9.32335E-01	-4.17816E-02	-2.59643E-01	 4.43400E+00	 2.52747E-02	 8.72433E-03	 8.10426E+01	 2.64324E+00	-1.03093E+01	 1.21579E+00
    24.776	 2.47760E+01	 0.00000E+00	 0.00000E+00	 3.38868E+01	 9.45037E+02	 7.50683E-01	 5.54542E-01	 9.32360E-01	-4.18020E-02	-2.59659E-01	 4.43400E+00	 2.52679E-02	 8.72445E-03	 8.10554E+01	 2.64198E+00	-1.03113E+01	 1.21586E+00
    24.780	 2.47800E+01	 0.00000E+00	 0.00000E+00	 3.38915E+01	 9.45159E+02	 7.50646E-01	 5.54634E-01	 9.32384E-01	-4.18224E-02	-2.59676E-01	 4.43400E+00	 2.52611E-02	 8.72457E-03	 8.10681E+01	 2.64072E+00	-1.03133E+01	 1.21594E+00
    24.784	 2.47840E+01	 0.00000E+00	 0.00000E+00	 3.38962E+01	 9.45282E+02	 7.50610E-01	 5.54726E-01	 9.32408E-01	-4.18426E-02	-2.59692E-01	 4.43400E+00	 2.52543E-02	 8.72475E-03	 8.10809E+01	 2.63947E+00	-1.03153E+01	 1.21602E+00
    24.788	 2.47880E+01	 0.00000E+00	 0.00000E+00	 3.39008E+01	 9.45404E+02	 7.50573E-01	 5.54818E-01	 9.32432E-01	-4.18630E-02	-2.59709E-01	 4.43400E+00	 2.52476E-02	 8.72487E-03	 8.10936E+01	 2.63822E+00	-1.03173E+01	 1.21610E+00
    24.792	 2.47920E+01	 0.00000E+00	 0.00000E+00	 3.39055E+01	 9.45527E+02	 7.50537E-01	 5.54909E-01	 9.32457E-01	-4.18833E-02	-2.59726E-01	 4.43400E+00	 2.52408E-02	 8.72505E-03	 8.11064E+01	 2.63695E+00	-1.03193E+01	 1.21618E+00
    24.796	 2.47960E+01	 0.00000E+00	 0.00000E+00	 3.39102E+01	 9.45650E+02	 7.50500E-01	 5.55001E-01	 9.32481E-01	-4.19037E-02	-2.59742E-01	 4.43400E+00	 2.52340E-02	 8.72517E-03	 8.11191E+01	 2.63570E+00	-1.03213E+01	 1.21626E+00
    24.800	 2.48000E+01	 0.00000E+00	 0.00000E+00	 3.39149E+01	 9.45772E+02	 7.50464E-01	 5.55093E-01	 9.32505E-01	-4.19239E-02	-2.59759E-01	 4.43400E+00	 2.52272E-02	 8.72535E-03	 8.11319E+01	 2.63445E+00	-1.03233E+01	 1.21634E+00
    24.804	 2.48040E+01	 0.00000E+00	 0.00000E+00	 3.39196E+01	 9.45895E+02	 7.50427E-01	 5.55185E-01	 9.32530E-01	-4.19443E-02	-2.59775E-01	 4.43400E+00	 2.52205E-02	 8.72546E-03	 8.11447E+01	 2.63319E+00	-1.03253E+01	 1.21642E+00
    24.808	 2.48080E+01	 0.00000E+00	 0.00000E+00	 3.39243E+01	 9.46018E+02	 7.50391E-01	 5.55277E-01	 9.32554E-01	-4.19646E-02	-2.59792E-01	 4.43400E+00	 2.52137E-02	 8.72558E-03	 8.11575E+01	 2.63193E+00	-1.03273E+01	 1.21650E+00
    24.812	 2.48120E+01	 0.00000E+00	 0.00000E+00	 3.39290E+01	 9.46140E+02	 7.50354E-01	 5.55368E-01	 9.32578E-01	-4.19849E-02	-2.59809E-01	 4.43400E+00	 2.52069E-02	 8.72576E-03	 8.11702E+01	 2.63068E+00	-1.03293E+01	 1.21657E+00
    24.816	 2.48160E+01	 0.00000E+00	 0.00000E+00	 3.39336E+01	 9.46263E+02	 7.50318E-01	 5.55460E-01	 9.32603E-01	-4.20051E-02	-2.59825E-01	 4.43400E+00	 2.52002E-02	 8.72588E-03	 8.11830E+01	 2.62943E+00	-1.03313E+01	 1.21665E+00
    24.820	 2.48200E+01	 0.00000E+00	 0.00000E+00	 3.39383E+01	 9.46386E+02	 7.50281E-01	 5.55552E-01	 9.32627E-01	-4.20254E-02	-2.59842E-01	 4.43400E+00	 2.51934E-02	 8.72600E-03	 8.11958E+01	 2.62817E+00	-1.03333E+01	 1.21673E+00
    24.824	 2.48240E+01	 0.00000E+00	 0.00000E+00	 3.39430E+01	 9.46509E+02	 7.50244E-01	 5.55644E-01	 9.32652E-01	-4.20457E-02	-2.59858E-01	 4.43400E+00	 2.51866E-02	 8.72618E-03	 8.12086E+01	 2.62691E+00	-1.03353E+01	 1.21681E+00
    24.828	 2.48280E+01	 0.00000E+00	 0.00000E+00	 3.39477E+01	 9.46632E+02	 7.50208E-01	 5.55735E-01	 9.32676E-01	-4.20659E-02	-2.59875E-01	 4.43400E+00	 2.51799E-02	 8.72630E-03	 8.12214E+01	 2.62566E+00	-1.03373E+01	 1.21689E+00
    24.832	 2.48320E+01	 0.00000E+00	 0.00000E+00	 3.39524E+01	 9.46754E+02	 7.50171E-01	 5.55827E-01	 9.32700E-01	-4.20863E-02	-2.59891E-01	 4.43400E+00	 2.51731E-02	 8.72642E-03	 8.12341E+01	 2.62441E+00	-1.03393E+01	 1.21697E+00
    24.836	 2.48360E+01	 0.00000E+00	 0.00000E+00	 3.39571E+01	 9.46877E+02	 7.50135E-01	 5.55919E-01	 9.32725E-01	-4.21065E-02	-2.59908E-01	 4.43400E+00	 2.51664E-02	 8.72660E-03	 8.12469E+01	 2.62315E+00	-1.03413E+01	 1.21705E+00
    24.840	 2.48400E+01	 0.00000E+00	 0.00000E+00	 3.39617E+01	 9.47000E+02	 7.50098E-01	 5.56011E-01	 9.32749E-01	-4.21267E-02	-2.59925E-01	 4.43400E+00	 2.51596E-02	 8.72672E-03	 8.12597E+01	 2.62190E+00	-1.03433E+01	 1.21713E+00
    24.844	 2.48440E+01	 0.00000E+00	 0.00000E+00	 3.39664E+01	 9.47123E+02	 7.50062E-01	 5.56102E-01	 9.32773E-01	-4.21470E-02	-2.59941E-01	 4.43400E+00	 2.51529E-02	 8.72689E-03	 8.12725E+01	 2.62065E+00	-1.03453E+01	 1.21721E+00
    24.848	 2.48480E+01	 0.00000E+00	 0.00000E+00	 3.39711E+01	 9.47246E+02	 7.50025E-01	 5.56194E-01	 9.32798E-01	-4.21672E-02	-2.59958E-01	 4.43400E+00	 2.51461E-02	 8.72701E-03	 8.12853E+01	 2.61940E+00	-1.03473E+01	 1.21728E+00
    24.852	 2.48520E+01	 0.00000E+00	 0.00000E+00	 3.39758E+01	 9.47369E+02	 7.49989E-01	 5.56286E-01	 9.32822E-01	-4.21875E-02	-2.59974E-01	 4.43400E+00	 2.51394E-02	 8.72713E-03	 8.12981E+01	 2.61814E+00	-1.03493E+01	 1.21736E+00
    24.856	 2.48560E+01	 0.00000E+00	 0.00000E+00	 3.39805E+01	 9.47492E+02	 7.49952E-01	 5.56377E-01	 9.32847E-01	-4.22077E-02	-2.59991E-01	 4.43400E+00	 2.51327E-02	 8.72731E-03	 8.13109E+01	 2.61689E+00	-1.03513E+01	 1.21744E+00
    24.860	 2.48600E+01	 0.00000E+00	 0.00000E+00	 3.39851E+01	 9.47615E+02	 7.49916E-01	 5.56469E-01	 9.32871E-01	-4.22278E-02	-2.60007E-01	 4.43400E+00	 2.51259E-02	 8.72743E-03	 8.13237E+01	 2.61564E+00	-1.03533E+01	 1.21752E+00
    24.864	 2.48640E+01	 0.00000E+00	 0.00000E+00	 3.39898E+01	 9.47737E+02	 7.49879E-01	 5.56561E-01	 9.32895E-01	-4.22481E-02	-2.60024E-01	 4.43400E+00	 2.51192E-02	 8.72761E-03	 8.13366E+01	 2.61438E+00	-1.03553E+01	 1.21760E+00
    24.868	 2.48680E+01	 0.00000E+00	 0.00000E+00	 3.39945E+01	 9.47861E+02	 7.49843E-01	 5.56652E-01	 9.32920E-01	-4.22682E-02	-2.60040E-01	 4.43400E+00	 2.51125E-02	 8.72773E-03	 8.13494E+01	 2.61313E+00	-1.03573E+01	 1.21768E+00
    24.872	 2.48720E+01	 0.00000E+00	 0.00000E+00	 3.39992E+01	 9.47984E+02	 7.49806E-01	 5.56744E-01	 9.32944E-01	-4.22885E-02	-2.60057E-01	 4.43400E+00	 2.51057E-02	 8.72785E-03	 8.13622E+01	 2.61188E+00	-1.03593E+01	 1.21776E+00
    24.876	 2.48760E+01	 0.00000E+00	 0.00000E+00	 3.40038E+01	 9.48107E+02	 7.49770E-01	 5.56835E-01	 9.32969E-01	-4.23087E-02	-2.60074E-01	 4.43400E+00	 2.50990E-02	 8.72797E-03	 8.13750E+01	 2.61063E+00	-1.03613E+01	 1.21784E+00
    24.880	 2.48800E+01	 0.00000E+00	 0.00000E+00	 3.40085E+01	 9.48230E+02	 7.49734E-01	 5.56927E-01	 9.32993E-01	-4.23289E-02	-2.60090E-01	 4.43400E+00	 2.50923E-02	 8.72815E-03	 8.13878E+01	 2.60938E+00	-1.03633E+01	 1.21792E+00
    24.884	 2.48840E+01	 0.00000E+00	 0.00000E+00	 3.40132E+01	 9.48353E+02	 7.49697E-01	 5.57018E-01	 9.33018E-01	-4.23491E-02	-2.60107E-01	 4.43400E+00	 2.50856E-02	 8.72827E-03	 8.14007E+01	 2.60813E+00	-1.03653E+01	 1.21800E+00
    24.888	 2.48880E+01	 0.00000E+00	 0.00000E+00	 3.40179E+01	 9.48476E+02	 7.49661E-01	 5.57110E-01	 9.33042E-01	-4.23692E-02	-2.60123E-01	 4.43400E+00	 2.50789E-02	 8.72844E-03	 8.14135E+01	 2.60688E+00	-1.03673E+01	 1.21807E+00
    24.892	 2.48920E+01	 0.00000E+00	 0.00000E+00	 3.40225E+01	 9.48599E+02	 7.49624E-01	 5.57201E-01	 9.33066E-01	-4.23894E-02	-2.60140E-01	 4.43400E+00	 2.50722E-02	 8.72856E-03	 8.14263E+01	 2.60562E+00	-1.03693E+01	 1.21815E+00
    24.896	 2.48960E+01	 0.00000E+00	 0.00000E+00	 3.40272E+01	 9.48722E+02	 7.49588E-01	 5.57293E-01	 9.33091E-01	-4.24096E-02	-2.60156E-01	 4.43400E+00	 2.50655E-02	 8.72868E-03	 8.14392E+01	 2.60438E+00	-1.03713E+01	 1.21823E+00
    24.900	 2.49000E+01	 0.00000E+00	 0.00000E+00	 3.40319E+01	 9.48845E+02	 7.49551E-01	 5.57384E-01	 9.33115E-01	-4.24297E-02	-2.60173E-01	 4.43400E+00	 2.50587E-02	 8.72886E-03	 8.14520E+01	 2.60312E+00	-1.03733E+01	 1.21831E+00
    24.904	 2.49040E+01	 0.00000E+00	 0.00000E+00	 3.40365E+01	 9.48968E+02	 7.49515E-01	 5.57476E-01	 9.33140E-01	-4.24498E-02	-2.60189E-01	 4.43400E+00	 2.50520E-02	 8.72898E-03	 8.14648E+01	 2.60188E+00	-1.03753E+01	 1.21839E+00
    24.908	 2.49080E+01	 0.00000E+00	 0.00000E+00	 3.40412E+01	 9.49092E+02	 7.49479E-01	 5.57567E-01	 9.33164E-01	-4.24700E-02	-2.60206E-01	 4.43400E+00	 2.50454E-02	 8.72916E-03	 8.14777E+01	 2.60063E+00	-1.03773E+01	 1.21847E+00
    24.912	 2.49120E+01	 0.00000E+00	 0.00000E+00	 3.40459E+01	 9.49215E+02	 7.49442E-01	 5.57659E-01	 9.33189E-01	-4.24901E-02	-2.60222E-01	 4.43400E+00	 2.50387E-02	 8.72928E-03	 8.14905E+01	 2.59938E+00	-1.03793E+01	 1.21855E+00
    24.916	 2.49160E+01	 0.00000E+00	 0.00000E+00	 3.40505E+01	 9.49338E+02	 7.49406E-01	 5.57750E-01	 9.33213E-01	-4.25102E-02	-2.60239E-01	 4.43400E+00	 2.50320E-02	 8.72946E-03	 8.15034E+01	 2.59813E+00	-1.03813E+01	 1.21863E+00
    24.920	 2.49200E+01	 0.00000E+00	 0.00000E+00	 3.40552E+01	 9.49461E+02	 7.49369E-01	 5.57842E-01	 9.33238E-01	-4.25304E-02	-2.60255E-01	 4.43400E+00	 2.50253E-02	 8.72958E-03	 8.15162E+01	 2.59688E+00	-1.03833E+01	 1.21871E+00
    24.924	 2.49240E+01	 0.00000E+00	 0.00000E+00	 3.40599E+01	 9.49585E+02	 7.49333E-01	 5.57933E-01	 9.33262E-01	-4.25505E-02	-2.60272E-01	 4.43400E+00	 2.50186E-02	 8.72970E-03	 8.15291E+01	 2.59563E+00	-1.03854E+01	 1.21879E+00
    24.928	 2.49280E+01	 0.00000E+00	 0.00000E+00	 3.40646E+01	 9.49708E+02	 7.49296E-01	 5.58025E-01	 9.33287E-01	-4.25706E-02	-2.60289E-01	 4.43400E+00	 2.50119E-02	 8.72982E-03	 8.15419E+01	 2.59439E+00	-1.03874E+01	 1.21887E+00
    24.932	 2.49320E+01	 0.00000E+00	 0.00000E+00	 3.40692E+01	 9.49831E+02	 7.49260E-01	 5.58116E-01	 9.33311E-01	-4.25908E-02	-2.60305E-01	 4.43400E+00	 2.50053E-02	 8.72999E-03	 8.15548E+01	 2.59313E+00	-1.03894E+01	 1.21894E+00
    24.936	 2.49360E+01	 0.00000E+00	 0.00000E+00	 3.40739E+01	 9.49955E+02	 7.49224E-01	 5.58207E-01	 9.33336E-01	-4.26108E-02	-2.60322E-01	 4.43400E+00	 2.49986E-02	 8.73011E-03	 8.15677E+01	 2.59189E+00	-1.03914E+01	 1.21902E+00
    24.940	 2.49400E+01	 0.00000E+00	 0.00000E+00	 3.40785E+01	 9.50078E+02	 7.49187E-01	 5.58299E-01	 9.33360E-01	-4.26309E-02	-2.60338E-01	 4.43400E+00	 2.49919E-02	 8.73029E-03	 8.15805E+01	 2.59064E+00	-1.03934E+01	 1.21910E+00
    24.944	 2.49440E+01	 0.00000E+00	 0.00000E+00	 3.40832E+01	 9.50201E+02	 7.49151E-01	 5.58390E-01	 9.33385E-01	-4.26510E-02	-2.60355E-01	 4.43400E+00	 2.49852E-02	 8.73041E-03	 8.15934E+01	 2.58939E+00	-1.03954E+01	 1.21918E+00
    24.948	 2.49480E+01	 0.00000E+00	 0.00000E+00	 3.40879E+01	 9.50325E+02	 7.49115E-01	 5.58482E-01	 9.33410E-01	-4.26711E-02	-2.60371E-01	 4.43400E+00	 2.49786E-02	 8.73059E-03	 8.16063E+01	 2.58815E+00	-1.03974E+01	 1.21926E+00
    24.952	 2.49520E+01	 0.00000E+00	 0.00000E+00	 3.40925E+01	 9.50448E+02	 7.49078E-01	 5.58573E-01	 9.33434E-01	-4.26912E-02	-2.60388E-01	 4.43400E+00	 2.49719E-02	 8.73071E-03	 8.16191E+01	 2.58689E+00	-1.03994E+01	 1.21934E+00
    24.956	 2.49560E+01	 0.00000E+00	 0.00000E+00	 3.40972E+01	 9.50572E+02	 7.49042E-01	 5.58664E-01	 9.33459E-01	-4.27112E-02	-2.60404E-01	 4.43400E+00	 2.49652E-02	 8.73083E-03	 8.16320E+01	 2.58565E+00	-1.04014E+01	 1.21942E+00
    24.960	 2.49600E+01	 0.00000E+00	 0.00000E+00	 3.41019E+01	 9.50695E+02	 7.49005E-01	 5.58756E-01	 9.33483E-01	-4.27313E-02	-2.60421E-01	 4.43400E+00	 2.49586E-02	 8.73101E-03	 8.16449E+01	 2.58441E+00	-1.04034E+01	 1.21950E+00
    24.964	 2.49640E+01	 0.00000E+00	 0.00000E+00	 3.41065E+01	 9.50819E+02	 7.48969E-01	 5.58847E-01	 9.33508E-01	-4.27513E-02	-2.60437E-01	 4.43400E+00	 2.49519E-02	 8.73113E-03	 8.16578E+01	 2.58316E+00	-1.04055E+01	 1.21958E+00
    24.968	 2.49680E+01	 0.00000E+00	 0.00000E+00	 3.41112E+01	 9.50942E+02	 7.48933E-01	 5.58938E-01	 9.33532E-01	-4.27713E-02	-2.60454E-01	 4.43400E+00	 2.49453E-02	 8.73125E-03	 8.16706E+01	 2.58191E+00	-1.04075E+01	 1.21966E+00
    24.972	 2.49720E+01	 0.00000E+00	 0.00000E+00	 3.41159E+01	 9.51065E+02	 7.48896E-01	 5.59030E-01	 9.33557E-01	-4.27914E-02	-2.60470E-01	 4.43400E+00	 2.49386E-02	 8.73142E-03	 8.16835E+01	 2.58067E+00	-1.04095E+01	 1.21974E+00
    24.976	 2.49760E+01	 0.00000E+00	 0.00000E+00	 3.41205E+01	 9.51189E+02	 7.48860E-01	 5.59121E-01	 9.33581E-01	-4.28114E-02	-2.60487E-01	 4.43400E+00	 2.49320E-02	 8.73154E-03	 8.16964E+01	 2.57943E+00	-1.04115E+01	 1.21982E+00
    24.980	 2.49800E+01	 0.00000E+00	 0.00000E+00	 3.41252E+01	 9.51313E+02	 7.48824E-01	 5.59212E-01	 9.33606E-01	-4.28315E-02	-2.60503E-01	 4.43400E+00	 2.49253E-02	 8.73172E-03	 8.17093E+01	 2.57818E+00	-1.04135E+01	 1.21989E+00
    24.984	 2.49840E+01	 0.00000E+00	 0.00000E+00	 3.41298E+01	 9.51436E+02	 7.48787E-01	 5.59303E-01	 9.33631E-01	-4.28514E-02	-2.60520E-01	 4.43400E+00	 2.49187E-02	 8.73184E-03	 8.17222E+01	 2.57694E+00	-1.04155E+01	 1.21997E+00
    24.988	 2.49880E+01	 0.00000E+00	 0.00000E+00	 3.41345E+01	 9.51560E+02	 7.48751E-01	 5.59394E-01	 9.33655E-01	-4.28714E-02	-2.60536E-01	 4.43400E+00	 2.49121E-02	 8.73202E-03	 8.17351E+01	 2.57569E+00	-1.04175E+01	 1.22005E+00
    24.992	 2.49920E+01	 0.00000E+00	 0.00000E+00	 3.41391E+01	 9.51683E+02	 7.48715E-01	 5.59486E-01	 9.33680E-01	-4.28915E-02	-2.60553E-01	 4.43400E+00	 2.49054E-02	 8.73214E-03	 8.17480E+01	 2.57444E+00	-1.04195E+01	 1.22013E+00
    24.996	 2.49960E+01	 0.00000E+00	 0.00000E+00	 3.41438E+01	 9.51807E+02	 7.48678E-01	 5.59577E-01	 9.33705E-01	-4.29115E-02	-2.60569E-01	 4.43400E+00	 2.48988E-02	 8.73232E-03	 8.17609E+01	 2.57320E+00	-1.04215E+01	 1.22021E+00
    25.000	 2.50000E+01	 0.00000E+00	 0.00000E+00	 3.41484E+01	 9.51931E+02	 7.48642E-01	 5.59668E-01	 9.33729E-01	-4.29315E-02	-2.60586E-01	 4.43400E+00	 2.48922E-02	 8.73244E-03	 8.17738E+01	 2.57196E+00	-1.04236E+01	 1.22029E+00
