
**************************************************************************************************
OpenFAST

Copyright (C) 2021 National Renewable Energy Laboratory
Copyright (C) 2021 Envision Energy USA LTD

This program is licensed under Apache License Version 2.0 and comes with ABSOLUTELY NO WARRANTY.
See the "LICENSE" file distributed with this software for details.
**************************************************************************************************

OpenFAST-v1.0.0-1800-g1082ba16
Compile Info:
 - Compiler: Intel(R) Fortran Intel(R) 64 Compiler Classic for applications running on Intel(R)
 64, Version 2021.1 Build 20201112_000000
 - Architecture: 64 bit
 - Precision: double
 - Date: Jan 28 2021
 - Time: 16:01:43
Execution Info:
 - Date: 01/28/2021
 - Time: 17:16:23-0600

OpenFAST input file heading:
    FAST Certification Test #19: NREL 5.0 MW Baseline Wind Turbine with OC3 Monopile RF
    Configuration, for use in offshore analysis

Running ElastoDyn.
Nodal outputs section of ElastoDyn input file not found or improperly formatted.
Running AeroDyn.
AD15 Nodal Outputs: Nodal output section of AeroDyn input file not found or improperly formatted.
Skipping nodal outputs.
Warning: Turning off Unsteady Aerodynamics because C_nalpha is 0. (node 1, blade 1)
Warning: Turning off Unsteady Aerodynamics because C_nalpha is 0. (node 2, blade 1)
Warning: Turning off Unsteady Aerodynamics because C_nalpha is 0. (node 3, blade 1)
Warning: Turning off Unsteady Aerodynamics because C_nalpha is 0. (node 4, blade 1)
Warning: Turning off Unsteady Aerodynamics because C_nalpha is 0. (node 1, blade 2)
Warning: Turning off Unsteady Aerodynamics because C_nalpha is 0. (node 2, blade 2)
Warning: Turning off Unsteady Aerodynamics because C_nalpha is 0. (node 3, blade 2)
Warning: Turning off Unsteady Aerodynamics because C_nalpha is 0. (node 4, blade 2)
Warning: Turning off Unsteady Aerodynamics because C_nalpha is 0. (node 1, blade 3)
Warning: Turning off Unsteady Aerodynamics because C_nalpha is 0. (node 2, blade 3)
Warning: Turning off Unsteady Aerodynamics because C_nalpha is 0. (node 3, blade 3)
Warning: Turning off Unsteady Aerodynamics because C_nalpha is 0. (node 4, blade 3)
Running InflowWind.

   Reading a 31x31 grid (145 m wide, 17.5 m to 162.5 m above ground) with a characteristic wind
   speed of 12 m/s. This full-field file was generated by TurbSim (v1.06.00, 21-Sep-2012) on
   07-Jan-2014 at 12:50:45.

   Processed 1442 time steps of 20-Hz full-field data (72.05 seconds).
Running ServoDyn.
Running ServoDyn Interface for Bladed Controllers (using Intel Visual Fortran for Windows, ).
Using legacy Bladed DLL interface.
Running HydroDyn.
 Generating incident wave kinematics and current time history.
 Calculating second order difference frequency wave kinematics.
 Calculating second order sum frequency wave kinematics.
Running SubDyn.
   Fixed bottom case detected
   Performing Craig-Bampton reduction 60 DOFs -> 0 modes + 6 DOFs
   Using static improvement method for gravity and ext. loads
   Calculating Full System Modes for summary file
 Time: 0 of 60 seconds.                                                                                                   Time: 1 of 60 seconds.  Estimated final completion at 17:20:21.                                                                                                   Time: 2 of 60 seconds.  Estimated final completion at 17:20:14.                                                                                                   Time: 3 of 60 seconds.  Estimated final completion at 17:20:34.                                                                                                   Time: 4 of 60 seconds.  Estimated final completion at 17:20:28.                                                                                                   Time: 5 of 60 seconds.  Estimated final completion at 17:20:16.                                                                                                   Time: 6 of 60 seconds.  Estimated final completion at 17:20:15.                                                                                                   Time: 7 of 60 seconds.  Estimated final completion at 17:20:17.                                                                                                   Time: 8 of 60 seconds.  Estimated final completion at 17:20:16.                                                                                                   Time: 9 of 60 seconds.  Estimated final completion at 17:20:21.                                                                                                   Time: 10 of 60 seconds.  Estimated final completion at 17:20:16.                                                                                                   Time: 11 of 60 seconds.  Estimated final completion at 17:20:14.                                                                                                   Time: 12 of 60 seconds.  Estimated final completion at 17:20:12.                                                                                                   Time: 13 of 60 seconds.  Estimated final completion at 17:20:13.                                                                                                   Time: 14 of 60 seconds.  Estimated final completion at 17:20:12.                                                                                                   Time: 15 of 60 seconds.  Estimated final completion at 17:20:12.                                                                                                   Time: 16 of 60 seconds.  Estimated final completion at 17:20:14.                                                                                                   Time: 17 of 60 seconds.  Estimated final completion at 17:20:13.                                                                                                   Time: 18 of 60 seconds.  Estimated final completion at 17:20:14.                                                                                                   Time: 19 of 60 seconds.  Estimated final completion at 17:20:13.                                                                                                   Time: 20 of 60 seconds.  Estimated final completion at 17:20:12.                                                                                                   Time: 21 of 60 seconds.  Estimated final completion at 17:20:10.                                                                                                   Time: 22 of 60 seconds.  Estimated final completion at 17:20:12.                                                                                                   Time: 23 of 60 seconds.  Estimated final completion at 17:20:12.                                                                                                   Time: 24 of 60 seconds.  Estimated final completion at 17:20:12.                                                                                                   Time: 25 of 60 seconds.  Estimated final completion at 17:20:13.                                                                                                   Time: 26 of 60 seconds.  Estimated final completion at 17:20:13.                                                                                                   Time: 27 of 60 seconds.  Estimated final completion at 17:20:13.                                                                                                   Time: 28 of 60 seconds.  Estimated final completion at 17:20:12.                                                                                                   Time: 29 of 60 seconds.  Estimated final completion at 17:20:12.                                                                                                   Time: 30 of 60 seconds.  Estimated final completion at 17:20:12.                                                                                                   Time: 31 of 60 seconds.  Estimated final completion at 17:20:12.                                                                                                   Time: 32 of 60 seconds.  Estimated final completion at 17:20:12.                                                                                                   Time: 33 of 60 seconds.  Estimated final completion at 17:20:13.                                                                                                   Time: 34 of 60 seconds.  Estimated final completion at 17:20:13.                                                                                                   Time: 35 of 60 seconds.  Estimated final completion at 17:20:12.                                                                                                   Time: 36 of 60 seconds.  Estimated final completion at 17:20:12.                                                                                                   Time: 37 of 60 seconds.  Estimated final completion at 17:20:12.                                                                                                   Time: 38 of 60 seconds.  Estimated final completion at 17:20:11.                                                                                                   Time: 39 of 60 seconds.  Estimated final completion at 17:20:13.                                                                                                   Time: 40 of 60 seconds.  Estimated final completion at 17:20:12.                                                                                                   Time: 41 of 60 seconds.  Estimated final completion at 17:20:11.                                                                                                   Time: 42 of 60 seconds.  Estimated final completion at 17:20:12.                                                                                                   Time: 43 of 60 seconds.  Estimated final completion at 17:20:12.                                                                                                   Time: 44 of 60 seconds.  Estimated final completion at 17:20:13.                                                                                                   Time: 45 of 60 seconds.  Estimated final completion at 17:20:12.                                                                                                   Time: 46 of 60 seconds.  Estimated final completion at 17:20:13.                                                                                                   Time: 47 of 60 seconds.  Estimated final completion at 17:20:12.                                                                                                   Time: 48 of 60 seconds.  Estimated final completion at 17:20:15.                                                                                                   Time: 49 of 60 seconds.  Estimated final completion at 17:20:25.                                                                                                   Time: 50 of 60 seconds.  Estimated final completion at 17:20:18.                                                                                                   Time: 51 of 60 seconds.  Estimated final completion at 17:20:16.                                                                                                   Time: 52 of 60 seconds.  Estimated final completion at 17:20:17.                                                                                                   Time: 53 of 60 seconds.  Estimated final completion at 17:20:16.                                                                                                   Time: 54 of 60 seconds.  Estimated final completion at 17:20:16.                                                                                                   Time: 55 of 60 seconds.  Estimated final completion at 17:20:17.                                                                                                   Time: 56 of 60 seconds.  Estimated final completion at 17:20:16.                                                                                                   Time: 57 of 60 seconds.  Estimated final completion at 17:20:16.                                                                                                   Time: 58 of 60 seconds.  Estimated final completion at 17:20:16.                                                                                                   Time: 59 of 60 seconds.  Estimated final completion at 17:20:16.                                                                                                   Time: 60 of 60 seconds.  Estimated final completion at 17:20:17.                                                                                                  

 Total Real Time:       3.8901 minutes
 Total CPU Time:        3.8823 minutes
 Simulation CPU Time:   1.731 minutes
 Simulated Time:        1 minutes
 Time Ratio (Sim/CPU):  0.5777

 OpenFAST terminated normally.

