
**************************************************************************************************
OpenFAST

Copyright (C) 2022 National Renewable Energy Laboratory
Copyright (C) 2022 Envision Energy USA LTD

This program is licensed under Apache License Version 2.0 and comes with ABSOLUTELY NO WARRANTY.
See the "LICENSE" file distributed with this software for details.
**************************************************************************************************

OpenFAST-v3.1.0-243-ge6028eae
Compile Info:
 - Compiler: Intel(R) Fortran Intel(R) 64 Compiler Classic for applications running on Intel(R)
 64, Version 2021.1 Build 20201112_000000
 - Architecture: 64 bit
 - Precision: double
 - OpenMP: No
 - Date: Jul 06 2022
 - Time: 19:36:47
Execution Info:
 - Date: 07/06/2022
 - Time: 20:07:55-0500

OpenFAST input file heading:
    FAST Certification Test #07: AOC 15/50 with many DOFs with free yaw and FF turbulence. Many
    parameters are pure fiction.

Running ElastoDyn.
Nodal outputs section of ElastoDyn input file not found or improperly formatted.
Running AeroDyn.
AD15 Nodal Outputs: Nodal output section of AeroDyn input file not found or improperly formatted.
Skipping nodal outputs.
Running InflowWind.

   Reading a 6x6 grid (18 m wide, 16 m to 34 m above ground) with a characteristic wind speed of
   12 m/s.

   Processed 1430 time steps of 20-Hz full-field data (71.45 seconds).
Running ServoDyn.
 Time: 0 of 70 seconds.

FAST_Solution:CalcOutputs_And_SolveForInputs:SolveOption2:RotCalcOutput:BEMT_CalcOutput(node 1,
blade 1):UA_CalcOutput:UA_BlendSteady:Temporarily turning off UA due to high angle of attack or
low relative velocity. This warning will not be repeated though the condition may persist.
                                                                                                   Time: 5 of 70 seconds.  Estimated final completion at 20:08:56.                                                                                                   Time: 10 of 70 seconds.  Estimated final completion at 20:09:04.                                                                                                   Time: 15 of 70 seconds.  Estimated final completion at 20:09:00.                                                                                                   Time: 20 of 70 seconds.  Estimated final completion at 20:08:58.                                                                                                   Time: 25 of 70 seconds.  Estimated final completion at 20:08:56.                                                                                                   Time: 30 of 70 seconds.  Estimated final completion at 20:08:58.                                                                                                   Time: 35 of 70 seconds.  Estimated final completion at 20:08:56.                                                                                                   Time: 40 of 70 seconds.  Estimated final completion at 20:08:56.                                                                                                   Time: 45 of 70 seconds.  Estimated final completion at 20:08:57.                                                                                                   Time: 50 of 70 seconds.  Estimated final completion at 20:08:57.                                                                                                   Time: 55 of 70 seconds.  Estimated final completion at 20:08:57.                                                                                                   Time: 60 of 70 seconds.  Estimated final completion at 20:08:57.                                                                                                   Time: 65 of 70 seconds.  Estimated final completion at 20:08:57.                                                                                                   Time: 70 of 70 seconds.  Estimated final completion at 20:08:57.                                                                                                  

 Total Real Time:       1.0314 minutes
 Total CPU Time:        1.0289 minutes
 Simulation CPU Time:   1.0266 minutes
 Simulated Time:        1.1667 minutes
 Time Ratio (Sim/CPU):  1.1365

 OpenFAST terminated normally.

