
 **************************************************************************************************
 OpenFAST

 Copyright (C) 2021 National Renewable Energy Laboratory
 Copyright (C) 2021 Envision Energy USA LTD

 This program is licensed under Apache License Version 2.0 and comes with ABSOLUTELY NO WARRANTY.
 See the "LICENSE" file distributed with this software for details.
 **************************************************************************************************

 OpenFAST-v2.5.0-10-gb4fd3acc
 Compile Info:
  - Compiler: GCC version 10.2.0
  - Architecture: 64 bit
  - Precision: double
  - Date: Jan 14 2021
  - Time: 17:19:34
 Execution Info:
  - Date: 01/14/2021
  - Time: 17:44:26-0600

 OpenFAST input file heading:
     Fixed-free beam test case

 Running ElastoDyn.
 Nodal outputs section of ElastoDyn input file not found or improperly formatted.
 Running BeamDyn.
 Nodal outputs section of BeamDyn input file not found or improperly formatted.
  Time: 0 of 1.50000E-03 seconds.
                                                                                                   Performing linearization 1 at simulation time 0 s. (RotSpeed=0 rpm, BldPitch1=0 deg)             
                                                                                                  
  Total Real Time:       1.139 seconds
  Total CPU Time:        1.1094 seconds
  Simulation CPU Time:   0.84375 seconds
  Simulated Time:        1.50000E-03 seconds
  Time Ratio (Sim/CPU):  1.77778E-03

  OpenFAST terminated normally.

