
 **************************************************************************************************
 OpenFAST

 Copyright (C) 2023 National Renewable Energy Laboratory
 Copyright (C) 2023 Envision Energy USA LTD

 This program is licensed under Apache License Version 2.0 and comes with ABSOLUTELY NO WARRANTY.
 See the "LICENSE" file distributed with this software for details.
 **************************************************************************************************

 OpenFAST-v3.5.1-733-gce100adc
 Compile Info:
  - Compiler: GCC version 10.5.0
  - Architecture: 64 bit
  - Precision: double
  - OpenMP: Yes, number of threads: 12/12
  - Date: Nov 17 2023
  - Time: 12:15:02
 Execution Info:
  - Date: 11/17/2023
  - Time: 17:32:49-0700

 OpenFAST input file heading:
     FAST Certification Test #26: NREL 5.0 MW Baseline Wind Turbine (Onshore)

 Running ElastoDyn.
 Running BeamDyn.
 Running BeamDyn.
 Running BeamDyn.
 Running AeroDyn.
 Warning: Turning off Unsteady Aerodynamics because polar has constant data. (node 1, blade 1)
 Warning: Turning off Unsteady Aerodynamics because polar has constant data. (node 2, blade 1)
 Warning: Turning off Unsteady Aerodynamics because polar has constant data. (node 3, blade 1)
 Warning: Turning off Unsteady Aerodynamics because polar has constant data. (node 4, blade 1)
 Warning: Turning off Unsteady Aerodynamics because polar has constant data. (node 1, blade 2)
 Warning: Turning off Unsteady Aerodynamics because polar has constant data. (node 2, blade 2)
 Warning: Turning off Unsteady Aerodynamics because polar has constant data. (node 3, blade 2)
 Warning: Turning off Unsteady Aerodynamics because polar has constant data. (node 4, blade 2)
 Warning: Turning off Unsteady Aerodynamics because polar has constant data. (node 1, blade 3)
 Warning: Turning off Unsteady Aerodynamics because polar has constant data. (node 2, blade 3)
 Warning: Turning off Unsteady Aerodynamics because polar has constant data. (node 3, blade 3)
 Warning: Turning off Unsteady Aerodynamics because polar has constant data. (node 4, blade 3)
 Running InflowWind.

    Reading a 31x31 grid (145 m wide, 17.5 m to 162.5 m above ground) with a characteristic wind
    speed of 12 m/s. This full-field file was generated by TurbSim (from
    OpenFAST-v3.0.0-98-g7bde6b54) on 14-Sep-2021 at 11:49:55.

    Processed 1442 time steps of 20-Hz grid-field data (72.05 seconds).
 Running ServoDyn.
 Running ServoDyn Interface for Bladed Controllers (using GNU Fortran for Linux).
 Using legacy Bladed DLL interface.
  Time: 0 of 20 seconds.

 FAST_Solution:FAST_AdvanceStates:SrvD_UpdateStates:DLL_controller_call:BladedInterface option was
 designed for an explicit-loose coupling scheme. Using last calculated values from DLL on all
 subsequent calls until time is advanced. Warning will not be displayed again.

                                                                                                   Time: 1 of 20 seconds.  Estimated final completion at 17:35:14.                                                                                                                                     Time: 2 of 20 seconds.  Estimated final completion at 17:35:19.                                                                                                                                     Time: 3 of 20 seconds.  Estimated final completion at 17:35:17.                                                                                                                                     Time: 4 of 20 seconds.  Estimated final completion at 17:35:18.                                                                                                                                     Time: 5 of 20 seconds.  Estimated final completion at 17:35:19.                                                                                                                                     Time: 6 of 20 seconds.  Estimated final completion at 17:35:23.                                                                                                                                     Time: 7 of 20 seconds.  Estimated final completion at 17:35:31.                                                                                                                                     Time: 8 of 20 seconds.  Estimated final completion at 17:35:30.                                                                                                                                     Time: 9 of 20 seconds.  Estimated final completion at 17:35:24.                                                                                                                                     Time: 10 of 20 seconds.  Estimated final completion at 17:35:23.                                                                                                                                    Time: 11 of 20 seconds.  Estimated final completion at 17:35:25.                                                                                                                                    Time: 12 of 20 seconds.  Estimated final completion at 17:35:22.                                                                                                                                    Time: 13 of 20 seconds.  Estimated final completion at 17:35:22.                                                                                                                                    Time: 14 of 20 seconds.  Estimated final completion at 17:35:29.                                                                                                                                    Time: 15 of 20 seconds.  Estimated final completion at 17:35:27.                                                                                                                                    Time: 16 of 20 seconds.  Estimated final completion at 17:35:32.                                                                                                                                    Time: 17 of 20 seconds.  Estimated final completion at 17:35:32.                                                                                                                                    Time: 18 of 20 seconds.  Estimated final completion at 17:35:29.                                                                                                                                    Time: 19 of 20 seconds.  Estimated final completion at 17:35:29.                                                                                                                                   
  Total Real Time:       2.6448 minutes
  Total CPU Time:        2.6214 minutes
  Simulation CPU Time:   2.6156 minutes
  Simulated Time:        0.33335 minutes
  Time Ratio (Sim/CPU):  0.12745

  OpenFAST terminated normally.

