
**************************************************************************************************
OpenFAST

Copyright (C) 2020 National Renewable Energy Laboratory
Copyright (C) 2020 Envision Energy USA LTD

This program is licensed under Apache License Version 2.0 and comes with ABSOLUTELY NO WARRANTY.
See the "LICENSE" file distributed with this software for details.
**************************************************************************************************

OpenFAST--128-NOTFOUND
Compile Info:
 - Compiler: Intel(R) Visual Fortran Intel(R) 64 Compiler for applications running on Intel(R)
 64, Version 19.0.5.281 Build 20190815
 - Architecture: 64 bit
 - Precision: double
 - Date: Nov 06 2020
 - Time: 13:50:38
Execution Info:
 - Date: 11/06/2020
 - Time: 16:22:26-0600

OpenFAST input file heading:
    FAST Certification Test #13: WindPACT 1.5 MW Baseline with many DOFs with VS and VP and FF
    turbulence.

Running ElastoDyn.
Nodal outputs section of ElastoDyn input file not found or improperly formatted.
Running AeroDyn.
Nodal output section of AeroDyn input file not found or improperly formatted.
Warning: Turning off Unsteady Aerodynamics because C_nalpha is 0. (node 1, blade 1)
Warning: Turning off Unsteady Aerodynamics because C_nalpha is 0. (node 2, blade 1)
Warning: Turning off Unsteady Aerodynamics because C_nalpha is 0. (node 1, blade 2)
Warning: Turning off Unsteady Aerodynamics because C_nalpha is 0. (node 2, blade 2)
Warning: Turning off Unsteady Aerodynamics because C_nalpha is 0. (node 1, blade 3)
Warning: Turning off Unsteady Aerodynamics because C_nalpha is 0. (node 2, blade 3)
Running InflowWind.

   Reading a 7x7 grid (84 m wide, 42.288 m to 126.29 m above ground) with a characteristic wind
   speed of 12 m/s.

   Processed 940 time steps of 20-Hz full-field data (46.95 seconds).
Running ServoDyn.
 Time: 0 of 40 seconds.                                                                                                   Time: 1 of 40 seconds.  Estimated final completion at 16:23:19.                                                                                                   Time: 2 of 40 seconds.  Estimated final completion at 16:23:18.                                                                                                   Time: 3 of 40 seconds.  Estimated final completion at 16:23:17.                                                                                                   Time: 4 of 40 seconds.  Estimated final completion at 16:23:17.

***********************************************
Running with control option using data from:
 Speed controller for ADAMS WindPACT 15A1001 model April, 2002.
***********************************************
                                                                                                   Time: 5 of 40 seconds.  Estimated final completion at 16:23:15.                                                                                                   Time: 6 of 40 seconds.  Estimated final completion at 16:23:15.                                                                                                   Time: 7 of 40 seconds.  Estimated final completion at 16:23:18.                                                                                                   Time: 8 of 40 seconds.  Estimated final completion at 16:23:16.                                                                                                   Time: 9 of 40 seconds.  Estimated final completion at 16:23:14.                                                                                                   Time: 10 of 40 seconds.  Estimated final completion at 16:23:15.                                                                                                   Time: 11 of 40 seconds.  Estimated final completion at 16:23:14.                                                                                                   Time: 12 of 40 seconds.  Estimated final completion at 16:23:17.                                                                                                   Time: 13 of 40 seconds.  Estimated final completion at 16:23:18.                                                                                                   Time: 14 of 40 seconds.  Estimated final completion at 16:23:14.                                                                                                   Time: 15 of 40 seconds.  Estimated final completion at 16:23:17.                                                                                                   Time: 16 of 40 seconds.  Estimated final completion at 16:23:17.                                                                                                   Time: 17 of 40 seconds.  Estimated final completion at 16:23:16.                                                                                                   Time: 18 of 40 seconds.  Estimated final completion at 16:23:17.                                                                                                   Time: 19 of 40 seconds.  Estimated final completion at 16:23:14.                                                                                                   Time: 20 of 40 seconds.  Estimated final completion at 16:23:17.                                                                                                   Time: 21 of 40 seconds.  Estimated final completion at 16:23:18.                                                                                                   Time: 22 of 40 seconds.  Estimated final completion at 16:23:17.                                                                                                   Time: 23 of 40 seconds.  Estimated final completion at 16:23:17.                                                                                                   Time: 24 of 40 seconds.  Estimated final completion at 16:23:18.                                                                                                   Time: 25 of 40 seconds.  Estimated final completion at 16:23:19.                                                                                                   Time: 26 of 40 seconds.  Estimated final completion at 16:23:21.                                                                                                   Time: 27 of 40 seconds.  Estimated final completion at 16:23:18.                                                                                                   Time: 28 of 40 seconds.  Estimated final completion at 16:23:20.                                                                                                   Time: 29 of 40 seconds.  Estimated final completion at 16:23:19.                                                                                                   Time: 30 of 40 seconds.  Estimated final completion at 16:23:19.                                                                                                   Time: 31 of 40 seconds.  Estimated final completion at 16:23:19.                                                                                                   Time: 32 of 40 seconds.  Estimated final completion at 16:23:18.                                                                                                   Time: 33 of 40 seconds.  Estimated final completion at 16:23:18.                                                                                                   Time: 34 of 40 seconds.  Estimated final completion at 16:23:19.                                                                                                   Time: 35 of 40 seconds.  Estimated final completion at 16:23:19.                                                                                                   Time: 36 of 40 seconds.  Estimated final completion at 16:23:19.                                                                                                   Time: 37 of 40 seconds.  Estimated final completion at 16:23:19.                                                                                                   Time: 38 of 40 seconds.  Estimated final completion at 16:23:19.                                                                                                   Time: 39 of 40 seconds.  Estimated final completion at 16:23:19.                                                                                                   Time: 40 of 40 seconds.  Estimated final completion at 16:23:19.                                                                                                  

 Total Real Time:       52.277 seconds
 Total CPU Time:        51.453 seconds
 Simulation CPU Time:   51.391 seconds
 Simulated Time:        40 seconds
 Time Ratio (Sim/CPU):  0.77835

 OpenFAST terminated normally.

