
**************************************************************************************************
OpenFAST

Copyright (C) 2021 National Renewable Energy Laboratory
Copyright (C) 2021 Envision Energy USA LTD

This program is licensed under Apache License Version 2.0 and comes with ABSOLUTELY NO WARRANTY.
See the "LICENSE" file distributed with this software for details.
**************************************************************************************************

OpenFAST-v2.4.0-137-gb5d9a13c
Compile Info:
 - Compiler: Intel(R) Fortran Intel(R) 64 Compiler Classic for applications running on Intel(R)
 64, Version 2021.1 Build 20201112_000000
 - Architecture: 64 bit
 - Precision: double
 - Date: Jan 11 2021
 - Time: 20:21:29
Execution Info:
 - Date: 01/11/2021
 - Time: 20:49:18-0600

OpenFAST input file heading:
    FAST Certification Test #13: WindPACT 1.5 MW Baseline with many DOFs with VS and VP and FF
    turbulence.

Running ElastoDyn.
Nodal outputs section of ElastoDyn input file not found or improperly formatted.
Running AeroDyn.
Nodal output section of AeroDyn input file not found or improperly formatted.
Warning: Turning off Unsteady Aerodynamics because C_nalpha is 0. (node 1, blade 1)
Warning: Turning off Unsteady Aerodynamics because C_nalpha is 0. (node 2, blade 1)
Warning: Turning off Unsteady Aerodynamics because C_nalpha is 0. (node 1, blade 2)
Warning: Turning off Unsteady Aerodynamics because C_nalpha is 0. (node 2, blade 2)
Warning: Turning off Unsteady Aerodynamics because C_nalpha is 0. (node 1, blade 3)
Warning: Turning off Unsteady Aerodynamics because C_nalpha is 0. (node 2, blade 3)
Running InflowWind.

   Reading a 7x7 grid (84 m wide, 42.288 m to 126.29 m above ground) with a characteristic wind
   speed of 12 m/s.

   Processed 940 time steps of 20-Hz full-field data (46.95 seconds).
Running ServoDyn.
 Time: 0 of 40 seconds.                                                                                                   Time: 1 of 40 seconds.  Estimated final completion at 20:50:04.                                                                                                   Time: 2 of 40 seconds.  Estimated final completion at 20:50:05.                                                                                                   Time: 3 of 40 seconds.  Estimated final completion at 20:50:03.                                                                                                   Time: 4 of 40 seconds.  Estimated final completion at 20:50:01.

***********************************************
Running with control option using data from:
 Speed controller for ADAMS WindPACT 15A1001 model April, 2002.
***********************************************
                                                                                                   Time: 5 of 40 seconds.  Estimated final completion at 20:50:02.                                                                                                   Time: 6 of 40 seconds.  Estimated final completion at 20:50:03.                                                                                                   Time: 7 of 40 seconds.  Estimated final completion at 20:50:03.                                                                                                   Time: 8 of 40 seconds.  Estimated final completion at 20:50:04.                                                                                                   Time: 9 of 40 seconds.  Estimated final completion at 20:50:00.                                                                                                   Time: 10 of 40 seconds.  Estimated final completion at 20:50:00.                                                                                                   Time: 11 of 40 seconds.  Estimated final completion at 20:50:00.                                                                                                   Time: 12 of 40 seconds.  Estimated final completion at 20:50:06.                                                                                                   Time: 13 of 40 seconds.  Estimated final completion at 20:50:02.                                                                                                   Time: 14 of 40 seconds.  Estimated final completion at 20:50:02.                                                                                                   Time: 15 of 40 seconds.  Estimated final completion at 20:50:03.                                                                                                   Time: 16 of 40 seconds.  Estimated final completion at 20:50:01.                                                                                                   Time: 17 of 40 seconds.  Estimated final completion at 20:50:01.                                                                                                   Time: 18 of 40 seconds.  Estimated final completion at 20:49:59.                                                                                                   Time: 19 of 40 seconds.  Estimated final completion at 20:50:01.                                                                                                   Time: 20 of 40 seconds.  Estimated final completion at 20:50:04.                                                                                                   Time: 21 of 40 seconds.  Estimated final completion at 20:49:59.                                                                                                   Time: 22 of 40 seconds.  Estimated final completion at 20:49:60.                                                                                                   Time: 23 of 40 seconds.  Estimated final completion at 20:49:59.                                                                                                   Time: 24 of 40 seconds.  Estimated final completion at 20:49:60.                                                                                                   Time: 25 of 40 seconds.  Estimated final completion at 20:49:59.                                                                                                   Time: 26 of 40 seconds.  Estimated final completion at 20:49:59.                                                                                                   Time: 27 of 40 seconds.  Estimated final completion at 20:49:59.                                                                                                   Time: 28 of 40 seconds.  Estimated final completion at 20:49:58.                                                                                                   Time: 29 of 40 seconds.  Estimated final completion at 20:49:57.                                                                                                   Time: 30 of 40 seconds.  Estimated final completion at 20:49:57.                                                                                                   Time: 31 of 40 seconds.  Estimated final completion at 20:49:58.                                                                                                   Time: 32 of 40 seconds.  Estimated final completion at 20:49:57.                                                                                                   Time: 33 of 40 seconds.  Estimated final completion at 20:49:57.                                                                                                   Time: 34 of 40 seconds.  Estimated final completion at 20:49:57.                                                                                                   Time: 35 of 40 seconds.  Estimated final completion at 20:49:57.                                                                                                   Time: 36 of 40 seconds.  Estimated final completion at 20:49:57.                                                                                                   Time: 37 of 40 seconds.  Estimated final completion at 20:49:57.                                                                                                   Time: 38 of 40 seconds.  Estimated final completion at 20:49:57.                                                                                                   Time: 39 of 40 seconds.  Estimated final completion at 20:49:57.                                                                                                   Time: 40 of 40 seconds.  Estimated final completion at 20:49:57.                                                                                                  

 Total Real Time:       38.456 seconds
 Total CPU Time:        38.328 seconds
 Simulation CPU Time:   38.25 seconds
 Simulated Time:        40 seconds
 Time Ratio (Sim/CPU):  1.0458

 OpenFAST terminated normally.

