
 **************************************************************************************************
 OpenFAST

 Copyright (C) 2024 National Renewable Energy Laboratory
 Copyright (C) 2024 Envision Energy USA LTD

 This program is licensed under Apache License Version 2.0 and comes with ABSOLUTELY NO WARRANTY.
 See the "LICENSE" file distributed with this software for details.
 **************************************************************************************************

 OpenFAST--128-NOTFOUND
 Compile Info:
  - Compiler: GCC version 12.3.0
  - Architecture: 64 bit
  - Precision: double
  - OpenMP: Yes, number of threads: 4/4
  - Date: May  2 2024
  - Time: 21:38:56
 Execution Info:
  - Date: 05/02/2024
  - Time: 21:57:42+0000

 OpenFAST input file heading:
     FAST Certification Test #13: WindPACT 1.5 MW Baseline with many DOFs with VS and VP and FF
     turbulence.

  Running ElastoDyn.
  Running InflowWind.

    Reading a 7x7 grid (84 m wide, 42.288 m to 126.29 m above ground) with a characteristic wind
    speed of 12 m/s.

    Processed 940 time steps of 20-Hz full-field data (46.95 seconds).
  Running AeroDyn.
 Warning: Turning off Unsteady Aerodynamics because polar has constant data. (node 1, blade 1)
 Warning: Turning off Unsteady Aerodynamics because polar has constant data. (node 2, blade 1)
 Warning: Turning off Unsteady Aerodynamics because polar has constant data. (node 1, blade 2)
 Warning: Turning off Unsteady Aerodynamics because polar has constant data. (node 2, blade 2)
 Warning: Turning off Unsteady Aerodynamics because polar has constant data. (node 1, blade 3)
 Warning: Turning off Unsteady Aerodynamics because polar has constant data. (node 2, blade 3)
  Running ServoDyn.
  Time: 0 of 40 seconds.
                                                                                                   Time: 1 of 40 seconds.  Estimated final completion at 21:58:01.                                                                                                                                     Time: 2 of 40 seconds.  Estimated final completion at 21:58:00.                                                                                                                                     Time: 3 of 40 seconds.  Estimated final completion at 21:58:00.                                                                                                                                     Time: 4 of 40 seconds.  Estimated final completion at 21:57:58.                                  
 ***********************************************
 Running with control option using data from:
  Speed controller for ADAMS WindPACT 15A1001 model April, 2002.
 ***********************************************

                                                                                                   Time: 5 of 40 seconds.  Estimated final completion at 21:58:00.                                  
 FAST_Solution:FAST_UpdateStates:CalcOutputs_And_SolveForInputs:SolveOption2:AD_CalcOutput:RotCalcO
 utput:BEMT_CalcOutput(node 3, blade 1):UA_CalcOutput:UA_BlendSteady:Temporarily turning off UA
 due to high angle of attack or low relative velocity. This warning will not be repeated though
 the condition may persist.

                                                                                                   Time: 6 of 40 seconds.  Estimated final completion at 21:57:59.                                                                                                                                     Time: 7 of 40 seconds.  Estimated final completion at 21:57:59.                                                                                                                                     Time: 8 of 40 seconds.  Estimated final completion at 21:57:59.                                                                                                                                     Time: 9 of 40 seconds.  Estimated final completion at 21:57:59.                                                                                                                                     Time: 10 of 40 seconds.  Estimated final completion at 21:57:59.                                                                                                                                    Time: 11 of 40 seconds.  Estimated final completion at 21:57:59.                                                                                                                                    Time: 12 of 40 seconds.  Estimated final completion at 21:57:59.                                                                                                                                    Time: 13 of 40 seconds.  Estimated final completion at 21:57:59.                                                                                                                                    Time: 14 of 40 seconds.  Estimated final completion at 21:57:59.                                                                                                                                    Time: 15 of 40 seconds.  Estimated final completion at 21:57:59.                                                                                                                                    Time: 16 of 40 seconds.  Estimated final completion at 21:57:59.                                                                                                                                    Time: 17 of 40 seconds.  Estimated final completion at 21:57:59.                                                                                                                                    Time: 18 of 40 seconds.  Estimated final completion at 21:57:59.                                                                                                                                    Time: 19 of 40 seconds.  Estimated final completion at 21:57:59.                                                                                                                                    Time: 20 of 40 seconds.  Estimated final completion at 21:57:59.                                                                                                                                    Time: 21 of 40 seconds.  Estimated final completion at 21:57:59.                                                                                                                                    Time: 22 of 40 seconds.  Estimated final completion at 21:57:59.                                                                                                                                    Time: 23 of 40 seconds.  Estimated final completion at 21:57:59.                                                                                                                                    Time: 24 of 40 seconds.  Estimated final completion at 21:57:59.                                                                                                                                    Time: 25 of 40 seconds.  Estimated final completion at 21:57:59.                                                                                                                                    Time: 26 of 40 seconds.  Estimated final completion at 21:57:59.                                                                                                                                    Time: 27 of 40 seconds.  Estimated final completion at 21:57:60.                                                                                                                                    Time: 28 of 40 seconds.  Estimated final completion at 21:57:59.                                                                                                                                    Time: 29 of 40 seconds.  Estimated final completion at 21:57:59.                                                                                                                                    Time: 30 of 40 seconds.  Estimated final completion at 21:57:59.                                                                                                                                    Time: 31 of 40 seconds.  Estimated final completion at 21:57:59.                                                                                                                                    Time: 32 of 40 seconds.  Estimated final completion at 21:57:59.                                                                                                                                    Time: 33 of 40 seconds.  Estimated final completion at 21:57:59.                                                                                                                                    Time: 34 of 40 seconds.  Estimated final completion at 21:57:59.                                                                                                                                    Time: 35 of 40 seconds.  Estimated final completion at 21:57:59.                                                                                                                                    Time: 36 of 40 seconds.  Estimated final completion at 21:57:59.                                                                                                                                    Time: 37 of 40 seconds.  Estimated final completion at 21:57:59.                                                                                                                                    Time: 38 of 40 seconds.  Estimated final completion at 21:57:59.                                                                                                                                    Time: 39 of 40 seconds.  Estimated final completion at 21:57:59.                                                                                                                                    Time: 40 of 40 seconds.  Estimated final completion at 21:57:59.                                                                                                                                   
  Total Real Time:       17.144 seconds
  Total CPU Time:        17.02 seconds
  Simulation CPU Time:   16.835 seconds
  Simulated Time:        40 seconds
  Time Ratio (Sim/CPU):  2.376

  OpenFAST terminated normally.

