
 **************************************************************************************************
 OpenFAST

 Copyright (C) 2022 National Renewable Energy Laboratory
 Copyright (C) 2022 Envision Energy USA LTD

 This program is licensed under Apache License Version 2.0 and comes with ABSOLUTELY NO WARRANTY.
 See the "LICENSE" file distributed with this software for details.
 **************************************************************************************************

 OpenFAST-v3.1.0-243-ge6028eae-dirty
 Compile Info:
  - Compiler: Intel(R) Fortran Intel(R) 64 Compiler Classic for applications running on Intel(R)
  64, Version 2021.1 Build 20201112_000000
  - Architecture: 64 bit
  - Precision: double
  - OpenMP: No
  - Date: Jul 06 2022
  - Time: 19:28:39
 Execution Info:
  - Date: 07/06/2022
  - Time: 22:23:08-0500

 OpenFAST input file heading:
     FAST Certification Test #09: UAE Phase VI (downwind) with many DOFs with yaw ramp and a
     steady wind.

 Running ElastoDyn.
 Nodal outputs section of ElastoDyn input file not found or improperly formatted.
 Running AeroDyn14.
   WARNING:   AeroDyn 14 is deprecated and will be removed in a future release.
 Running InflowWind.
 Running ServoDyn.

 FAST_InitializeAll: IfW_Init:IfW_UniformWind_Init: Could not read upflow column in uniform wind
 files. Assuming upflow is 0.

  Time: 0 of 40 seconds.
+                                                                                                  
+ Time: 2 of 40 seconds.  Estimated final completion at 22:23:60.
+                                                                                                  
+ Time: 4 of 40 seconds.  Estimated final completion at 22:23:58.
+                                                                                                  
+ Time: 6 of 40 seconds.  Estimated final completion at 22:23:60.
+                                                                                                  
+ Time: 8 of 40 seconds.  Estimated final completion at 22:23:57.
+                                                                                                  
+ Time: 10 of 40 seconds.  Estimated final completion at 22:23:59.
+                                                                                                  
+ Time: 12 of 40 seconds.  Estimated final completion at 22:23:60.
+                                                                                                  
+ Time: 14 of 40 seconds.  Estimated final completion at 22:23:55.
+                                                                                                  
+ Time: 16 of 40 seconds.  Estimated final completion at 22:24:01.
+                                                                                                  
+ Time: 18 of 40 seconds.  Estimated final completion at 22:23:57.
+                                                                                                  
+ Time: 20 of 40 seconds.  Estimated final completion at 22:23:57.
+                                                                                                  
+ Time: 22 of 40 seconds.  Estimated final completion at 22:23:56.
+                                                                                                  
+ Time: 24 of 40 seconds.  Estimated final completion at 22:23:57.
+                                                                                                  
+ Time: 26 of 40 seconds.  Estimated final completion at 22:23:57.
+                                                                                                  
+ Time: 28 of 40 seconds.  Estimated final completion at 22:23:57.
+                                                                                                  
+ Time: 30 of 40 seconds.  Estimated final completion at 22:23:57.
+                                                                                                  
+ Time: 32 of 40 seconds.  Estimated final completion at 22:23:57.
+                                                                                                  
+ Time: 34 of 40 seconds.  Estimated final completion at 22:23:56.
+                                                                                                  
+ Time: 36 of 40 seconds.  Estimated final completion at 22:23:56.
+                                                                                                  
+ Time: 38 of 40 seconds.  Estimated final completion at 22:23:56.
+                                                                                                  

  Total Real Time:       47.715 seconds
  Total CPU Time:        47.71 seconds
  Simulation CPU Time:   47.686 seconds
  Simulated Time:        40.002 seconds
  Time Ratio (Sim/CPU):  0.83887

  OpenFAST terminated normally.

