
 **************************************************************************************************
 OpenFAST

 Copyright (C) 2021 National Renewable Energy Laboratory
 Copyright (C) 2021 Envision Energy USA LTD

 This program is licensed under Apache License Version 2.0 and comes with ABSOLUTELY NO WARRANTY.
 See the "LICENSE" file distributed with this software for details.
 **************************************************************************************************

 OpenFAST-v2.4.0-138-g9a6c1967
 Compile Info:
  - Compiler: Intel(R) Fortran Intel(R) 64 Compiler Classic for applications running on Intel(R)
  64, Version 2021.1.2 Build 20201208_000000
  - Architecture: 64 bit
  - Precision: double
  - Date: Jan 12 2021
  - Time: 13:31:16
 Execution Info:
  - Date: 01/12/2021
  - Time: 14:06:19-0600

 OpenFAST input file heading:
     FAST Certification Test #09: UAE Phase VI (downwind) with many DOFs with yaw ramp and a
     steady wind.

 Running ElastoDyn.
 Nodal outputs section of ElastoDyn input file not found or improperly formatted.
 Running AeroDyn14.
 Running InflowWind.
 Running ServoDyn.

 FAST_InitializeAll: IfW_Init:IfW_UniformWind_Init: Could not read upflow column in uniform wind
 files. Assuming upflow is 0.

  Time: 0 of 40 seconds.
+                                                                                                  
+ Time: 2 of 40 seconds.  Estimated final completion at 14:06:53.
+                                                                                                  
+ Time: 4 of 40 seconds.  Estimated final completion at 14:06:52.
+                                                                                                  
+ Time: 6 of 40 seconds.  Estimated final completion at 14:06:52.
+                                                                                                  
+ Time: 8 of 40 seconds.  Estimated final completion at 14:06:52.
+                                                                                                  
+ Time: 10 of 40 seconds.  Estimated final completion at 14:06:52.
+                                                                                                  
+ Time: 12 of 40 seconds.  Estimated final completion at 14:06:51.
+                                                                                                  
+ Time: 14 of 40 seconds.  Estimated final completion at 14:06:52.
+                                                                                                  
+ Time: 16 of 40 seconds.  Estimated final completion at 14:06:53.
+                                                                                                  
+ Time: 18 of 40 seconds.  Estimated final completion at 14:06:55.
+                                                                                                  
+ Time: 20 of 40 seconds.  Estimated final completion at 14:06:53.
+                                                                                                  
+ Time: 22 of 40 seconds.  Estimated final completion at 14:06:54.
+                                                                                                  
+ Time: 24 of 40 seconds.  Estimated final completion at 14:06:53.
+                                                                                                  
+ Time: 26 of 40 seconds.  Estimated final completion at 14:06:53.
+                                                                                                  
+ Time: 28 of 40 seconds.  Estimated final completion at 14:06:53.
+                                                                                                  
+ Time: 30 of 40 seconds.  Estimated final completion at 14:06:53.
+                                                                                                  
+ Time: 32 of 40 seconds.  Estimated final completion at 14:06:53.
+                                                                                                  
+ Time: 34 of 40 seconds.  Estimated final completion at 14:06:54.
+                                                                                                  
+ Time: 36 of 40 seconds.  Estimated final completion at 14:06:53.
+                                                                                                  
+ Time: 38 of 40 seconds.  Estimated final completion at 14:06:53.
+                                                                                                  

  Total Real Time:       33.223 seconds
  Total CPU Time:        33.203 seconds
  Simulation CPU Time:   33.125 seconds
  Simulated Time:        40.002 seconds
  Time Ratio (Sim/CPU):  1.2076

  OpenFAST terminated normally.

