
 **************************************************************************************************
 MoorDyn Driver

 Copyright (C) 2023 National Renewable Energy Laboratory
 Copyright (C) 2023 Envision Energy USA LTD

 Copyright (C) 2021 NREL, 2019 Matt Hall

 This program is licensed under Apache License Version 2.0 and comes with ABSOLUTELY NO WARRANTY.
 See the "LICENSE" file distributed with this software for details.
 **************************************************************************************************

  Running MoorDyn Driver a part of OpenFAST - v3.5.0-86-g378154c6
  linked with NWTC Subroutine Library

  MD Driver updated 2022-01-12
 Opening MoorDyn Driver input file:
 /Users/aplatt/software-development/GitHub/openfast/build/reg_tests/modules/moordyn/md_Node_Check_N
 40/md_driver.inp
 Running MoorDyn (v2.0.0, 2023-09-18).
    This is MoorDyn v2, with significant input file changes from v1.
    Copyright: (C) 2023 National Renewable Energy Laboratory, (C) 2019 Matt Hall
    Parsing MoorDyn input file: test.dat
   Created mooring system:  1 lines, 2 points, 0 rods, 0 bodies.
    Catenary solve of Line 1 unsuccessful. Initializing as linear.
    Finalizing initial conditions using dynamic relaxation.

   t=1  FairTen 1: 2.75972E+05, 1, 2                                                                 t=2  FairTen 1: 3.18502E+05, 2.75972E+05, 1                                                       t=3  FairTen 1: 3.34421E+05, 3.18502E+05, 2.75972E+05                                             t=4  FairTen 1: 3.45419E+05, 3.34421E+05, 3.18502E+05                                             t=5  FairTen 1: 5.90169E+05, 3.45419E+05, 3.34421E+05                                             t=6  FairTen 1: 4.45592E+05, 5.90169E+05, 3.45419E+05                                             t=7  FairTen 1: 4.89483E+05, 4.45592E+05, 5.90169E+05                                             t=8  FairTen 1: 6.76242E+05, 4.89483E+05, 4.45592E+05                                             t=9  FairTen 1: 5.95341E+05, 6.76242E+05, 4.89483E+05                                             t=10  FairTen 1: 6.54084E+05, 5.95341E+05, 6.76242E+05                                            t=11  FairTen 1: 8.08379E+05, 6.54084E+05, 5.95341E+05                                            t=12  FairTen 1: 8.82669E+05, 8.08379E+05, 6.54084E+05                                            t=13  FairTen 1: 8.70358E+05, 8.82669E+05, 8.08379E+05                                            t=14  FairTen 1: 8.79094E+05, 8.70358E+05, 8.82669E+05                                            t=15  FairTen 1: 9.90651E+05, 8.79094E+05, 8.70358E+05                                            t=16  FairTen 1: 1.09351E+06, 9.90651E+05, 8.79094E+05                                            t=17  FairTen 1: 1.09898E+06, 1.09351E+06, 9.90651E+05                                            t=18  FairTen 1: 1.13225E+06, 1.09898E+06, 1.09351E+06                                            t=19  FairTen 1: 1.17046E+06, 1.13225E+06, 1.09898E+06                                            t=20  FairTen 1: 1.23118E+06, 1.17046E+06, 1.13225E+06                                            t=21  FairTen 1: 1.32943E+06, 1.23118E+06, 1.17046E+06                                            t=22  FairTen 1: 1.38900E+06, 1.32943E+06, 1.23118E+06                                            t=23  FairTen 1: 1.42002E+06, 1.38900E+06, 1.32943E+06                                            t=24  FairTen 1: 1.41998E+06, 1.42002E+06, 1.38900E+06                                            t=25  FairTen 1: 1.43370E+06, 1.41998E+06, 1.42002E+06                                            t=26  FairTen 1: 1.45382E+06, 1.43370E+06, 1.41998E+06                                            t=27  FairTen 1: 1.50143E+06, 1.45382E+06, 1.43370E+06                                            t=28  FairTen 1: 1.49864E+06, 1.50143E+06, 1.45382E+06                                            t=29  FairTen 1: 1.55055E+06, 1.49864E+06, 1.50143E+06                                            t=30  FairTen 1: 1.61456E+06, 1.55055E+06, 1.49864E+06                                            t=31  FairTen 1: 1.54028E+06, 1.61456E+06, 1.55055E+06                                            t=32  FairTen 1: 1.57687E+06, 1.54028E+06, 1.61456E+06                                            t=33  FairTen 1: 1.63050E+06, 1.57687E+06, 1.54028E+06                                            t=34  FairTen 1: 1.60534E+06, 1.63050E+06, 1.57687E+06                                            t=35  FairTen 1: 1.60260E+06, 1.60534E+06, 1.63050E+06                                            t=36  FairTen 1: 1.58584E+06, 1.60260E+06, 1.60534E+06                                            t=37  FairTen 1: 1.64685E+06, 1.58584E+06, 1.60260E+06                                            t=38  FairTen 1: 1.62844E+06, 1.64685E+06, 1.58584E+06                                            t=39  FairTen 1: 1.66163E+06, 1.62844E+06, 1.64685E+06                                            t=40  FairTen 1: 1.67097E+06, 1.66163E+06, 1.62844E+06                                            t=41  FairTen 1: 1.60884E+06, 1.67097E+06, 1.66163E+06                                            t=42  FairTen 1: 1.67146E+06, 1.60884E+06, 1.67097E+06                                            t=43  FairTen 1: 1.65607E+06, 1.67146E+06, 1.60884E+06                                            t=44  FairTen 1: 1.69447E+06, 1.65607E+06, 1.67146E+06                                            t=45  FairTen 1: 1.70126E+06, 1.69447E+06, 1.65607E+06                                            t=46  FairTen 1: 1.72027E+06, 1.70126E+06, 1.69447E+06                                            t=47  FairTen 1: 1.65887E+06, 1.72027E+06, 1.70126E+06                                            t=48  FairTen 1: 1.71860E+06, 1.65887E+06, 1.72027E+06                                            t=49  FairTen 1: 1.69991E+06, 1.71860E+06, 1.65887E+06                                            t=50  FairTen 1: 1.72137E+06, 1.69991E+06, 1.71860E+06                                            t=51  FairTen 1: 1.75589E+06, 1.72137E+06, 1.69991E+06                                            t=52  FairTen 1: 1.76386E+06, 1.75589E+06, 1.72137E+06                                            t=53  FairTen 1: 1.69079E+06, 1.76386E+06, 1.75589E+06                                            t=54  FairTen 1: 1.76125E+06, 1.69079E+06, 1.76386E+06                                            t=55  FairTen 1: 1.74451E+06, 1.76125E+06, 1.69079E+06                                            t=56  FairTen 1: 1.76395E+06, 1.74451E+06, 1.76125E+06                                            t=57  FairTen 1: 1.77855E+06, 1.76395E+06, 1.74451E+06                                            t=58  FairTen 1: 1.80816E+06, 1.77855E+06, 1.76395E+06                                            t=59  FairTen 1: 1.65754E+06, 1.80816E+06, 1.77855E+06                                            t=60  FairTen 1: 1.78110E+06, 1.65754E+06, 1.80816E+06                                             Fairlead tensions did not converge within TMaxIC=60 seconds.
    MoorDyn initialization completed.
 Running MoorDyn (v2.0.0, 2023-09-18).
 MoorDyn has 0 coupled DOFs and/or active-tensioned inputs.

 Tmax - 60 and nt=4799

 Doing time marching now...
  Time: 0 of 60 seconds.
                                                                                                   Time: 0 of 60 seconds.  Estimated final completion at 10:39:45.                                                                                                                                     Time: 0 of 60 seconds.  Estimated final completion at 10:39:43.                                                                                                                                     Time: 1 of 60 seconds.  Estimated final completion at 10:39:46.                                                                                                                                     Time: 1 of 60 seconds.  Estimated final completion at 10:39:51.                                                                                                                                     Time: 1 of 60 seconds.  Estimated final completion at 10:39:52.                                                                                                                                     Time: 1 of 60 seconds.  Estimated final completion at 10:39:44.                                                                                                                                     Time: 2 of 60 seconds.  Estimated final completion at 10:39:45.                                                                                                                                     Time: 2 of 60 seconds.  Estimated final completion at 10:39:42.                                                                                                                                     Time: 2 of 60 seconds.  Estimated final completion at 10:39:39.                                                                                                                                     Time: 2 of 60 seconds.  Estimated final completion at 10:39:42.                                                                                                                                     Time: 3 of 60 seconds.  Estimated final completion at 10:39:45.                                                                                                                                     Time: 3 of 60 seconds.  Estimated final completion at 10:39:46.                                                                                                                                     Time: 3 of 60 seconds.  Estimated final completion at 10:39:51.                                                                                                                                     Time: 3 of 60 seconds.  Estimated final completion at 10:40:07.                                                                                                                                     Time: 4 of 60 seconds.  Estimated final completion at 10:39:57.                                                                                                                                     Time: 4 of 60 seconds.  Estimated final completion at 10:39:48.                                                                                                                                     Time: 4 of 60 seconds.  Estimated final completion at 10:39:43.                                                                                                                                     Time: 4 of 60 seconds.  Estimated final completion at 10:39:43.                                                                                                                                     Time: 5 of 60 seconds.  Estimated final completion at 10:39:47.                                                                                                                                     Time: 5 of 60 seconds.  Estimated final completion at 10:39:47.                                                                                                                                     Time: 5 of 60 seconds.  Estimated final completion at 10:39:44.                                                                                                                                     Time: 5 of 60 seconds.  Estimated final completion at 10:39:46.                                                                                                                                     Time: 6 of 60 seconds.  Estimated final completion at 10:39:47.                                                                                                                                     Time: 6 of 60 seconds.  Estimated final completion at 10:39:51.                                                                                                                                     Time: 6 of 60 seconds.  Estimated final completion at 10:39:47.                                                                                                                                     Time: 6 of 60 seconds.  Estimated final completion at 10:39:46.                                                                                                                                     Time: 7 of 60 seconds.  Estimated final completion at 10:39:50.                                                                                                                                     Time: 7 of 60 seconds.  Estimated final completion at 10:39:44.                                                                                                                                     Time: 7 of 60 seconds.  Estimated final completion at 10:39:49.                                                                                                                                     Time: 7 of 60 seconds.  Estimated final completion at 10:39:51.                                                                                                                                     Time: 8 of 60 seconds.  Estimated final completion at 10:39:50.                                                                                                                                     Time: 8 of 60 seconds.  Estimated final completion at 10:39:44.                                                                                                                                     Time: 8 of 60 seconds.  Estimated final completion at 10:39:48.                                                                                                                                     Time: 8 of 60 seconds.  Estimated final completion at 10:39:52.                                                                                                                                     Time: 9 of 60 seconds.  Estimated final completion at 10:39:54.                                                                                                                                     Time: 9 of 60 seconds.  Estimated final completion at 10:39:57.                                                                                                                                     Time: 9 of 60 seconds.  Estimated final completion at 10:39:58.                                                                                                                                     Time: 9 of 60 seconds.  Estimated final completion at 10:40:11.                                                                                                                                     Time: 10 of 60 seconds.  Estimated final completion at 10:40:02.                                                                                                                                    Time: 10 of 60 seconds.  Estimated final completion at 10:40:07.                                                                                                                                    Time: 10 of 60 seconds.  Estimated final completion at 10:39:59.                                                                                                                                    Time: 10 of 60 seconds.  Estimated final completion at 10:39:54.                                                                                                                                    Time: 11 of 60 seconds.  Estimated final completion at 10:39:58.                                                                                                                                    Time: 11 of 60 seconds.  Estimated final completion at 10:39:56.                                                                                                                                    Time: 11 of 60 seconds.  Estimated final completion at 10:39:56.                                                                                                                                    Time: 11 of 60 seconds.  Estimated final completion at 10:39:57.                                                                                                                                    Time: 12 of 60 seconds.  Estimated final completion at 10:39:54.                                                                                                                                    Time: 12 of 60 seconds.  Estimated final completion at 10:39:56.                                                                                                                                    Time: 12 of 60 seconds.  Estimated final completion at 10:39:56.                                                                                                                                    Time: 12 of 60 seconds.  Estimated final completion at 10:39:48.                                                                                                                                    Time: 13 of 60 seconds.  Estimated final completion at 10:39:49.                                                                                                                                    Time: 13 of 60 seconds.  Estimated final completion at 10:39:50.                                                                                                                                    Time: 13 of 60 seconds.  Estimated final completion at 10:39:49.                                                                                                                                    Time: 13 of 60 seconds.  Estimated final completion at 10:39:48.                                                                                                                                    Time: 14 of 60 seconds.  Estimated final completion at 10:39:43.                                                                                                                                    Time: 14 of 60 seconds.  Estimated final completion at 10:39:48.                                                                                                                                    Time: 14 of 60 seconds.  Estimated final completion at 10:39:48.                                                                                                                                    Time: 14 of 60 seconds.  Estimated final completion at 10:39:51.                                                                                                                                    Time: 15 of 60 seconds.  Estimated final completion at 10:39:49.                                                                                                                                    Time: 15 of 60 seconds.  Estimated final completion at 10:39:43.                                                                                                                                    Time: 15 of 60 seconds.  Estimated final completion at 10:39:43.                                                                                                                                    Time: 15 of 60 seconds.  Estimated final completion at 10:39:43.                                                                                                                                    Time: 16 of 60 seconds.  Estimated final completion at 10:39:43.                                                                                                                                    Time: 16 of 60 seconds.  Estimated final completion at 10:39:44.                                                                                                                                    Time: 16 of 60 seconds.  Estimated final completion at 10:39:50.                                                                                                                                    Time: 16 of 60 seconds.  Estimated final completion at 10:39:46.                                                                                                                                    Time: 17 of 60 seconds.  Estimated final completion at 10:39:42.                                                                                                                                    Time: 17 of 60 seconds.  Estimated final completion at 10:39:44.                                                                                                                                    Time: 17 of 60 seconds.  Estimated final completion at 10:39:45.                                                                                                                                    Time: 17 of 60 seconds.  Estimated final completion at 10:39:49.                                                                                                                                    Time: 18 of 60 seconds.  Estimated final completion at 10:39:45.                                                                                                                                    Time: 18 of 60 seconds.  Estimated final completion at 10:39:43.                                                                                                                                    Time: 18 of 60 seconds.  Estimated final completion at 10:39:44.                                                                                                                                    Time: 18 of 60 seconds.  Estimated final completion at 10:39:46.                                                                                                                                    Time: 19 of 60 seconds.  Estimated final completion at 10:39:46.                                                                                                                                    Time: 19 of 60 seconds.  Estimated final completion at 10:39:48.                                                                                                                                    Time: 19 of 60 seconds.  Estimated final completion at 10:39:46.                                                                                                                                    Time: 19 of 60 seconds.  Estimated final completion at 10:39:44.                                                                                                                                    Time: 20 of 60 seconds.  Estimated final completion at 10:39:43.                                                                                                                                    Time: 20 of 60 seconds.  Estimated final completion at 10:39:44.                                                                                                                                    Time: 20 of 60 seconds.  Estimated final completion at 10:39:44.                                                                                                                                    Time: 20 of 60 seconds.  Estimated final completion at 10:39:44.                                                                                                                                    Time: 21 of 60 seconds.  Estimated final completion at 10:39:47.                                                                                                                                    Time: 21 of 60 seconds.  Estimated final completion at 10:39:51.                                                                                                                                    Time: 21 of 60 seconds.  Estimated final completion at 10:39:44.                                                                                                                                    Time: 21 of 60 seconds.  Estimated final completion at 10:39:40.                                                                                                                                    Time: 22 of 60 seconds.  Estimated final completion at 10:39:42.                                                                                                                                    Time: 22 of 60 seconds.  Estimated final completion at 10:39:42.                                                                                                                                    Time: 22 of 60 seconds.  Estimated final completion at 10:39:42.                                                                                                                                    Time: 22 of 60 seconds.  Estimated final completion at 10:39:42.                                                                                                                                    Time: 23 of 60 seconds.  Estimated final completion at 10:39:41.                                                                                                                                    Time: 23 of 60 seconds.  Estimated final completion at 10:39:41.                                                                                                                                    Time: 23 of 60 seconds.  Estimated final completion at 10:39:41.                                                                                                                                    Time: 23 of 60 seconds.  Estimated final completion at 10:39:42.                                                                                                                                    Time: 24 of 60 seconds.  Estimated final completion at 10:39:39.                                                                                                                                    Time: 24 of 60 seconds.  Estimated final completion at 10:39:39.                                                                                                                                    Time: 24 of 60 seconds.  Estimated final completion at 10:39:39.                                                                                                                                    Time: 24 of 60 seconds.  Estimated final completion at 10:39:40.                                                                                                                                    Time: 25 of 60 seconds.  Estimated final completion at 10:39:39.                                                                                                                                    Time: 25 of 60 seconds.  Estimated final completion at 10:39:39.                                                                                                                                    Time: 25 of 60 seconds.  Estimated final completion at 10:39:39.                                                                                                                                    Time: 25 of 60 seconds.  Estimated final completion at 10:39:39.                                                                                                                                    Time: 26 of 60 seconds.  Estimated final completion at 10:39:39.                                                                                                                                    Time: 26 of 60 seconds.  Estimated final completion at 10:39:40.                                                                                                                                    Time: 26 of 60 seconds.  Estimated final completion at 10:39:41.                                                                                                                                    Time: 26 of 60 seconds.  Estimated final completion at 10:39:43.                                                                                                                                    Time: 27 of 60 seconds.  Estimated final completion at 10:39:40.                                                                                                                                    Time: 27 of 60 seconds.  Estimated final completion at 10:39:39.                                                                                                                                    Time: 27 of 60 seconds.  Estimated final completion at 10:39:38.                                                                                                                                    Time: 27 of 60 seconds.  Estimated final completion at 10:39:39.                                                                                                                                    Time: 28 of 60 seconds.  Estimated final completion at 10:39:40.                                                                                                                                    Time: 28 of 60 seconds.  Estimated final completion at 10:39:40.                                                                                                                                    Time: 28 of 60 seconds.  Estimated final completion at 10:39:39.                                                                                                                                    Time: 28 of 60 seconds.  Estimated final completion at 10:39:40.                                                                                                                                    Time: 29 of 60 seconds.  Estimated final completion at 10:39:40.                                                                                                                                    Time: 29 of 60 seconds.  Estimated final completion at 10:39:41.                                                                                                                                    Time: 29 of 60 seconds.  Estimated final completion at 10:39:41.                                                                                                                                    Time: 29 of 60 seconds.  Estimated final completion at 10:39:41.                                                                                                                                    Time: 30 of 60 seconds.  Estimated final completion at 10:39:42.                                                                                                                                    Time: 30 of 60 seconds.  Estimated final completion at 10:39:41.                                                                                                                                    Time: 30 of 60 seconds.  Estimated final completion at 10:39:41.                                                                                                                                    Time: 30 of 60 seconds.  Estimated final completion at 10:39:41.                                                                                                                                    Time: 31 of 60 seconds.  Estimated final completion at 10:39:41.                                                                                                                                    Time: 31 of 60 seconds.  Estimated final completion at 10:39:41.                                                                                                                                    Time: 31 of 60 seconds.  Estimated final completion at 10:39:45.                                                                                                                                    Time: 31 of 60 seconds.  Estimated final completion at 10:39:45.                                                                                                                                    Time: 32 of 60 seconds.  Estimated final completion at 10:39:42.                                                                                                                                    Time: 32 of 60 seconds.  Estimated final completion at 10:39:43.                                                                                                                                    Time: 32 of 60 seconds.  Estimated final completion at 10:39:42.                                                                                                                                    Time: 32 of 60 seconds.  Estimated final completion at 10:39:41.                                                                                                                                    Time: 33 of 60 seconds.  Estimated final completion at 10:39:43.                                                                                                                                    Time: 33 of 60 seconds.  Estimated final completion at 10:39:42.                                                                                                                                    Time: 33 of 60 seconds.  Estimated final completion at 10:39:43.                                                                                                                                    Time: 33 of 60 seconds.  Estimated final completion at 10:39:42.                                                                                                                                    Time: 34 of 60 seconds.  Estimated final completion at 10:39:42.                                                                                                                                    Time: 34 of 60 seconds.  Estimated final completion at 10:39:43.                                                                                                                                    Time: 34 of 60 seconds.  Estimated final completion at 10:39:43.                                                                                                                                    Time: 34 of 60 seconds.  Estimated final completion at 10:39:43.                                                                                                                                    Time: 35 of 60 seconds.  Estimated final completion at 10:39:42.                                                                                                                                    Time: 35 of 60 seconds.  Estimated final completion at 10:39:42.                                                                                                                                    Time: 35 of 60 seconds.  Estimated final completion at 10:39:42.                                                                                                                                    Time: 35 of 60 seconds.  Estimated final completion at 10:39:41.                                                                                                                                    Time: 36 of 60 seconds.  Estimated final completion at 10:39:42.                                                                                                                                    Time: 36 of 60 seconds.  Estimated final completion at 10:39:44.                                                                                                                                    Time: 36 of 60 seconds.  Estimated final completion at 10:39:44.                                                                                                                                    Time: 36 of 60 seconds.  Estimated final completion at 10:39:42.                                                                                                                                    Time: 37 of 60 seconds.  Estimated final completion at 10:39:42.                                                                                                                                    Time: 37 of 60 seconds.  Estimated final completion at 10:39:42.                                                                                                                                    Time: 37 of 60 seconds.  Estimated final completion at 10:39:42.                                                                                                                                    Time: 37 of 60 seconds.  Estimated final completion at 10:39:43.                                                                                                                                    Time: 38 of 60 seconds.  Estimated final completion at 10:39:43.                                                                                                                                    Time: 38 of 60 seconds.  Estimated final completion at 10:39:43.                                                                                                                                    Time: 38 of 60 seconds.  Estimated final completion at 10:39:43.                                                                                                                                    Time: 38 of 60 seconds.  Estimated final completion at 10:39:43.                                                                                                                                    Time: 39 of 60 seconds.  Estimated final completion at 10:39:45.                                                                                                                                    Time: 39 of 60 seconds.  Estimated final completion at 10:39:46.                                                                                                                                    Time: 39 of 60 seconds.  Estimated final completion at 10:39:46.                                                                                                                                    Time: 39 of 60 seconds.  Estimated final completion at 10:39:46.                                                                                                                                    Time: 40 of 60 seconds.  Estimated final completion at 10:39:45.                                                                                                                                    Time: 40 of 60 seconds.  Estimated final completion at 10:39:48.                                                                                                                                    Time: 40 of 60 seconds.  Estimated final completion at 10:39:47.                                                                                                                                    Time: 40 of 60 seconds.  Estimated final completion at 10:39:46.                                                                                                                                    Time: 41 of 60 seconds.  Estimated final completion at 10:39:45.                                                                                                                                    Time: 41 of 60 seconds.  Estimated final completion at 10:39:44.                                                                                                                                    Time: 41 of 60 seconds.  Estimated final completion at 10:39:45.                                                                                                                                    Time: 41 of 60 seconds.  Estimated final completion at 10:39:46.                                                                                                                                    Time: 42 of 60 seconds.  Estimated final completion at 10:39:45.                                                                                                                                    Time: 42 of 60 seconds.  Estimated final completion at 10:39:45.                                                                                                                                    Time: 42 of 60 seconds.  Estimated final completion at 10:39:45.                                                                                                                                    Time: 42 of 60 seconds.  Estimated final completion at 10:39:46.                                                                                                                                    Time: 43 of 60 seconds.  Estimated final completion at 10:39:46.                                                                                                                                    Time: 43 of 60 seconds.  Estimated final completion at 10:39:45.                                                                                                                                    Time: 43 of 60 seconds.  Estimated final completion at 10:39:44.                                                                                                                                    Time: 43 of 60 seconds.  Estimated final completion at 10:39:44.                                                                                                                                    Time: 44 of 60 seconds.  Estimated final completion at 10:39:44.                                                                                                                                    Time: 44 of 60 seconds.  Estimated final completion at 10:39:45.                                                                                                                                    Time: 44 of 60 seconds.  Estimated final completion at 10:39:46.                                                                                                                                    Time: 44 of 60 seconds.  Estimated final completion at 10:39:48.                                                                                                                                    Time: 45 of 60 seconds.  Estimated final completion at 10:39:48.                                                                                                                                    Time: 45 of 60 seconds.  Estimated final completion at 10:39:47.                                                                                                                                    Time: 45 of 60 seconds.  Estimated final completion at 10:39:49.                                                                                                                                    Time: 45 of 60 seconds.  Estimated final completion at 10:39:48.                                                                                                                                    Time: 46 of 60 seconds.  Estimated final completion at 10:39:51.                                                                                                                                    Time: 46 of 60 seconds.  Estimated final completion at 10:39:49.                                                                                                                                    Time: 46 of 60 seconds.  Estimated final completion at 10:39:54.                                                                                                                                    Time: 46 of 60 seconds.  Estimated final completion at 10:39:51.                                                                                                                                    Time: 47 of 60 seconds.  Estimated final completion at 10:39:50.                                                                                                                                    Time: 47 of 60 seconds.  Estimated final completion at 10:39:48.                                                                                                                                    Time: 47 of 60 seconds.  Estimated final completion at 10:39:48.                                                                                                                                    Time: 47 of 60 seconds.  Estimated final completion at 10:39:46.                                                                                                                                    Time: 48 of 60 seconds.  Estimated final completion at 10:39:46.                                                                                                                                    Time: 48 of 60 seconds.  Estimated final completion at 10:39:46.                                                                                                                                    Time: 48 of 60 seconds.  Estimated final completion at 10:39:46.                                                                                                                                    Time: 48 of 60 seconds.  Estimated final completion at 10:39:46.                                                                                                                                    Time: 49 of 60 seconds.  Estimated final completion at 10:39:46.                                                                                                                                    Time: 49 of 60 seconds.  Estimated final completion at 10:39:46.                                                                                                                                    Time: 49 of 60 seconds.  Estimated final completion at 10:39:46.                                                                                                                                    Time: 49 of 60 seconds.  Estimated final completion at 10:39:46.                                                                                                                                    Time: 50 of 60 seconds.  Estimated final completion at 10:39:46.                                                                                                                                    Time: 50 of 60 seconds.  Estimated final completion at 10:39:46.                                                                                                                                    Time: 50 of 60 seconds.  Estimated final completion at 10:39:46.                                                                                                                                    Time: 50 of 60 seconds.  Estimated final completion at 10:39:46.                                                                                                                                    Time: 51 of 60 seconds.  Estimated final completion at 10:39:46.                                                                                                                                    Time: 51 of 60 seconds.  Estimated final completion at 10:39:46.                                                                                                                                    Time: 51 of 60 seconds.  Estimated final completion at 10:39:47.                                                                                                                                    Time: 51 of 60 seconds.  Estimated final completion at 10:39:47.                                                                                                                                    Time: 52 of 60 seconds.  Estimated final completion at 10:39:46.                                                                                                                                    Time: 52 of 60 seconds.  Estimated final completion at 10:39:46.                                                                                                                                    Time: 52 of 60 seconds.  Estimated final completion at 10:39:47.                                                                                                                                    Time: 52 of 60 seconds.  Estimated final completion at 10:39:47.                                                                                                                                    Time: 53 of 60 seconds.  Estimated final completion at 10:39:47.                                                                                                                                    Time: 53 of 60 seconds.  Estimated final completion at 10:39:46.                                                                                                                                    Time: 53 of 60 seconds.  Estimated final completion at 10:39:46.                                                                                                                                    Time: 53 of 60 seconds.  Estimated final completion at 10:39:47.                                                                                                                                    Time: 54 of 60 seconds.  Estimated final completion at 10:39:47.                                                                                                                                    Time: 54 of 60 seconds.  Estimated final completion at 10:39:46.                                                                                                                                    Time: 54 of 60 seconds.  Estimated final completion at 10:39:46.                                                                                                                                    Time: 54 of 60 seconds.  Estimated final completion at 10:39:46.                                                                                                                                    Time: 55 of 60 seconds.  Estimated final completion at 10:39:46.                                                                                                                                    Time: 55 of 60 seconds.  Estimated final completion at 10:39:46.                                                                                                                                    Time: 55 of 60 seconds.  Estimated final completion at 10:39:46.                                                                                                                                    Time: 55 of 60 seconds.  Estimated final completion at 10:39:46.                                                                                                                                    Time: 56 of 60 seconds.  Estimated final completion at 10:39:46.                                                                                                                                    Time: 56 of 60 seconds.  Estimated final completion at 10:39:46.                                                                                                                                    Time: 56 of 60 seconds.  Estimated final completion at 10:39:46.                                                                                                                                    Time: 56 of 60 seconds.  Estimated final completion at 10:39:46.                                                                                                                                    Time: 57 of 60 seconds.  Estimated final completion at 10:39:46.                                                                                                                                    Time: 57 of 60 seconds.  Estimated final completion at 10:39:46.                                                                                                                                    Time: 57 of 60 seconds.  Estimated final completion at 10:39:46.                                                                                                                                    Time: 57 of 60 seconds.  Estimated final completion at 10:39:46.                                                                                                                                    Time: 58 of 60 seconds.  Estimated final completion at 10:39:46.                                                                                                                                    Time: 58 of 60 seconds.  Estimated final completion at 10:39:46.                                                                                                                                    Time: 58 of 60 seconds.  Estimated final completion at 10:39:46.                                                                                                                                    Time: 58 of 60 seconds.  Estimated final completion at 10:39:46.                                                                                                                                    Time: 59 of 60 seconds.  Estimated final completion at 10:39:46.                                                                                                                                    Time: 59 of 60 seconds.  Estimated final completion at 10:39:46.                                                                                                                                    Time: 59 of 60 seconds.  Estimated final completion at 10:39:46.                                                                                                                                    Time: 59 of 60 seconds.  Estimated final completion at 10:39:46.                                                                                                                                    Time: 60 of 60 seconds.  Estimated final completion at 10:39:46.                                                                                                                                   
  Total Real Time:       1.4289 minutes
  Total CPU Time:        1.3995 minutes
  Simulation CPU Time:   0.71819 minutes
  Simulated Time:        0.99979 minutes
  Time Ratio (Sim/CPU):  1.3921
 Program has ended
