
These predictions were generated by HydroDyn on 07-Mar-2023 at 16:37:48.




    Time                      Wave1Elev                       HydroFxi                       HydroFyi                       HydroFzi                       HydroMxi                       HydroMyi                       HydroMzi                       B1WvsFxi                       B2WvsFxi                       B3WvsFxi                       B4WvsFxi                       B1WvsFyi                       B2WvsFyi                       B3WvsFyi                       B4WvsFyi                       B1WvsFzi                       B2WvsFzi                       B3WvsFzi                       B4WvsFzi                       B1WvsMxi                       B2WvsMxi                       B3WvsMxi                       B4WvsMxi                       B1WvsMyi                       B2WvsMyi                       B3WvsMyi                       B4WvsMyi                       B1WvsMzi                       B2WvsMzi                       B3WvsMzi                       B4WvsMzi                      B1WvsF1xi                      B2WvsF1xi                      B3WvsF1xi                      B4WvsF1xi                      B1WvsF1yi                      B2WvsF1yi                      B3WvsF1yi                      B4WvsF1yi                      B1WvsF1zi                      B2WvsF1zi                      B3WvsF1zi                      B4WvsF1zi                      B1WvsM1xi                      B2WvsM1xi                      B3WvsM1xi                      B4WvsM1xi                      B1WvsM1yi                      B2WvsM1yi                      B3WvsM1yi                      B4WvsM1yi                      B1WvsM1zi                      B2WvsM1zi                      B3WvsM1zi                      B4WvsM1zi                        B1Surge                         B1Sway                        B1Heave                         B1Roll                        B1Pitch                          B1Yaw                        B2Surge                         B2Sway                        B2Heave                         B2Roll                        B2Pitch                          B2Yaw                        B3Surge                         B3Sway                        B3Heave                         B3Roll                        B3Pitch                          B3Yaw                        B4Surge                         B4Sway                        B4Heave                         B4Roll                        B4Pitch                          B4Yaw
   (sec)                            (m)                            (N)                            (N)                            (N)                          (N-m)                          (N-m)                          (N-m)                            (N)                            (N)                            (N)                            (N)                            (N)                            (N)                            (N)                            (N)                            (N)                            (N)                            (N)                            (N)                          (N-m)                          (N-m)                          (N-m)                          (N-m)                          (N-m)                          (N-m)                          (N-m)                          (N-m)                          (N-m)                          (N-m)                          (N-m)                          (N-m)                            (N)                            (N)                            (N)                            (N)                            (N)                            (N)                            (N)                            (N)                            (N)                            (N)                            (N)                            (N)                          (N-m)                          (N-m)                          (N-m)                          (N-m)                          (N-m)                          (N-m)                          (N-m)                          (N-m)                          (N-m)                          (N-m)                          (N-m)                          (N-m)                            (m)                            (m)                            (m)                          (rad)                          (rad)                          (rad)                            (m)                            (m)                            (m)                          (rad)                          (rad)                          (rad)                            (m)                            (m)                            (m)                          (rad)                          (rad)                          (rad)                            (m)                            (m)                            (m)                          (rad)                          (rad)                          (rad)
    0.0000                    -2.0654E-01                     1.5859E+05                     9.5282E-02                     5.2757E+07                     3.0663E+00                    -4.4072E+06                     3.0373E+00                     1.9657E+05                    -1.5764E+05                     2.9010E+05                    -1.5764E+05                    -4.0171E-02                     5.8552E-02                     1.8349E-02                     5.8552E-02                    -6.1835E+04                     3.0704E+05                     8.4681E+04                     3.0704E+05                    -2.7171E-01                     1.4753E+00                     3.8731E-01                     1.4753E+00                    -1.0138E+06                     2.4631E+06                    -2.2248E+06                     2.4631E+06                     6.0223E-02                     5.9024E-01                     6.3608E-01                     5.9024E-01                     1.9657E+05                    -1.5764E+05                     2.9010E+05                    -1.5764E+05                    -4.0171E-02                     5.8552E-02                     1.8349E-02                     5.8552E-02                    -6.1835E+04                     3.0704E+05                     8.4681E+04                     3.0704E+05                    -2.7171E-01                     1.4753E+00                     3.8731E-01                     1.4753E+00                    -1.0138E+06                     2.4631E+06                    -2.2248E+06                     2.4631E+06                     6.0223E-02                     5.9024E-01                     6.3608E-01                     5.9024E-01                     0.0000E+00                     0.0000E+00                     0.0000E+00                     0.0000E+00                     0.0000E+00                     0.0000E+00                     0.0000E+00                     0.0000E+00                     0.0000E+00                     0.0000E+00                     0.0000E+00                     0.0000E+00                     0.0000E+00                     0.0000E+00                     0.0000E+00                     0.0000E+00                     0.0000E+00                     0.0000E+00                     0.0000E+00                     0.0000E+00                     0.0000E+00                     0.0000E+00                     0.0000E+00                     0.0000E+00
    0.0125                    -2.0134E-01                     1.8685E+05                     9.4749E-02                     5.2751E+07                     3.0610E+00                    -4.7356E+06                     3.0714E+00                     1.9637E+05                    -1.4773E+05                     2.9865E+05                    -1.4773E+05                    -4.0170E-02                     5.8707E-02                     1.7506E-02                     5.8707E-02                    -6.1984E+04                     3.0490E+05                     8.2466E+04                     3.0490E+05                    -2.7395E-01                     1.4751E+00                     3.8464E-01                     1.4751E+00                    -1.0114E+06                     2.3395E+06                    -2.3012E+06                     2.3395E+06                     6.0589E-02                     5.9302E-01                     6.3546E-01                     5.9302E-01                     1.9637E+05                    -1.4773E+05                     2.9865E+05                    -1.4773E+05                    -4.0170E-02                     5.8707E-02                     1.7506E-02                     5.8707E-02                    -6.1984E+04                     3.0490E+05                     8.2466E+04                     3.0490E+05                    -2.7395E-01                     1.4751E+00                     3.8464E-01                     1.4751E+00                    -1.0114E+06                     2.3395E+06                    -2.3012E+06                     2.3395E+06                     6.0589E-02                     5.9302E-01                     6.3546E-01                     5.9302E-01                     0.0000E+00                     0.0000E+00                     0.0000E+00                     0.0000E+00                     0.0000E+00                     0.0000E+00                     0.0000E+00                     0.0000E+00                     0.0000E+00                     0.0000E+00                     0.0000E+00                     0.0000E+00                     0.0000E+00                     0.0000E+00                     0.0000E+00                     0.0000E+00                     0.0000E+00                     0.0000E+00                     0.0000E+00                     0.0000E+00                     0.0000E+00                     0.0000E+00                     0.0000E+00                     0.0000E+00
    0.0250                    -1.9614E-01                     2.1512E+05                     9.4217E-02                     5.2744E+07                     3.0557E+00                    -5.0640E+06                     3.1056E+00                     1.9616E+05                    -1.3782E+05                     3.0720E+05                    -1.3782E+05                    -4.0169E-02                     5.8861E-02                     1.6664E-02                     5.8861E-02                    -6.2134E+04                     3.0276E+05                     8.0252E+04                     3.0276E+05                    -2.7620E-01                     1.4749E+00                     3.8198E-01                     1.4749E+00                    -1.0090E+06                     2.2159E+06                    -2.3776E+06                     2.2159E+06                     6.0956E-02                     5.9581E-01                     6.3484E-01                     5.9581E-01                     1.9616E+05                    -1.3782E+05                     3.0720E+05                    -1.3782E+05                    -4.0169E-02                     5.8861E-02                     1.6664E-02                     5.8861E-02                    -6.2134E+04                     3.0276E+05                     8.0252E+04                     3.0276E+05                    -2.7620E-01                     1.4749E+00                     3.8198E-01                     1.4749E+00                    -1.0090E+06                     2.2159E+06                    -2.3776E+06                     2.2159E+06                     6.0956E-02                     5.9581E-01                     6.3484E-01                     5.9581E-01                     0.0000E+00                     0.0000E+00                     0.0000E+00                     0.0000E+00                     0.0000E+00                     0.0000E+00                     0.0000E+00                     0.0000E+00                     0.0000E+00                     0.0000E+00                     0.0000E+00                     0.0000E+00                     0.0000E+00                     0.0000E+00                     0.0000E+00                     0.0000E+00                     0.0000E+00                     0.0000E+00                     0.0000E+00                     0.0000E+00                     0.0000E+00                     0.0000E+00                     0.0000E+00                     0.0000E+00
    0.0375                    -1.9093E-01                     2.4338E+05                     9.3684E-02                     5.2738E+07                     3.0503E+00                    -5.3923E+06                     3.1397E+00                     1.9596E+05                    -1.2790E+05                     3.1575E+05                    -1.2790E+05                    -4.0168E-02                     5.9015E-02                     1.5821E-02                     5.9015E-02                    -6.2283E+04                     3.0061E+05                     7.8037E+04                     3.0061E+05                    -2.7844E-01                     1.4747E+00                     3.7931E-01                     1.4747E+00                    -1.0066E+06                     2.0924E+06                    -2.4540E+06                     2.0924E+06                     6.1322E-02                     5.9860E-01                     6.3423E-01                     5.9860E-01                     1.9596E+05                    -1.2790E+05                     3.1575E+05                    -1.2790E+05                    -4.0168E-02                     5.9015E-02                     1.5821E-02                     5.9015E-02                    -6.2283E+04                     3.0061E+05                     7.8037E+04                     3.0061E+05                    -2.7844E-01                     1.4747E+00                     3.7931E-01                     1.4747E+00                    -1.0066E+06                     2.0924E+06                    -2.4540E+06                     2.0924E+06                     6.1322E-02                     5.9860E-01                     6.3423E-01                     5.9860E-01                     0.0000E+00                     0.0000E+00                     0.0000E+00                     0.0000E+00                     0.0000E+00                     0.0000E+00                     0.0000E+00                     0.0000E+00                     0.0000E+00                     0.0000E+00                     0.0000E+00                     0.0000E+00                     0.0000E+00                     0.0000E+00                     0.0000E+00                     0.0000E+00                     0.0000E+00                     0.0000E+00                     0.0000E+00                     0.0000E+00                     0.0000E+00                     0.0000E+00                     0.0000E+00                     0.0000E+00
    0.0500                    -1.8573E-01                     2.7164E+05                     9.3152E-02                     5.2731E+07                     3.0450E+00                    -5.7205E+06                     3.1738E+00                     1.9576E+05                    -1.1799E+05                     3.2429E+05                    -1.1799E+05                    -4.0166E-02                     5.9170E-02                     1.4978E-02                     5.9170E-02                    -6.2433E+04                     2.9847E+05                     7.5823E+04                     2.9847E+05                    -2.8069E-01                     1.4745E+00                     3.7664E-01                     1.4745E+00                    -1.0042E+06                     1.9688E+06                    -2.5304E+06                     1.9688E+06                     6.1688E-02                     6.0139E-01                     6.3361E-01                     6.0139E-01                     1.9576E+05                    -1.1799E+05                     3.2429E+05                    -1.1799E+05                    -4.0166E-02                     5.9170E-02                     1.4978E-02                     5.9170E-02                    -6.2433E+04                     2.9847E+05                     7.5823E+04                     2.9847E+05                    -2.8069E-01                     1.4745E+00                     3.7664E-01                     1.4745E+00                    -1.0042E+06                     1.9688E+06                    -2.5304E+06                     1.9688E+06                     6.1688E-02                     6.0139E-01                     6.3361E-01                     6.0139E-01                     0.0000E+00                     0.0000E+00                     0.0000E+00                     0.0000E+00                     0.0000E+00                     0.0000E+00                     0.0000E+00                     0.0000E+00                     0.0000E+00                     0.0000E+00                     0.0000E+00                     0.0000E+00                     0.0000E+00                     0.0000E+00                     0.0000E+00                     0.0000E+00                     0.0000E+00                     0.0000E+00                     0.0000E+00                     0.0000E+00                     0.0000E+00                     0.0000E+00                     0.0000E+00                     0.0000E+00
    0.0625                    -1.8053E-01                     2.9990E+05                     9.2619E-02                     5.2725E+07                     3.0397E+00                    -6.0486E+06                     3.2079E+00                     1.9555E+05                    -1.0808E+05                     3.3284E+05                    -1.0808E+05                    -4.0165E-02                     5.9324E-02                     1.4136E-02                     5.9324E-02                    -6.2582E+04                     2.9633E+05                     7.3608E+04                     2.9633E+05                    -2.8293E-01                     1.4743E+00                     3.7398E-01                     1.4743E+00                    -1.0018E+06                     1.8452E+06                    -2.6067E+06                     1.8452E+06                     6.2055E-02                     6.0418E-01                     6.3300E-01                     6.0418E-01                     1.9555E+05                    -1.0808E+05                     3.3284E+05                    -1.0808E+05                    -4.0165E-02                     5.9324E-02                     1.4136E-02                     5.9324E-02                    -6.2582E+04                     2.9633E+05                     7.3608E+04                     2.9633E+05                    -2.8293E-01                     1.4743E+00                     3.7398E-01                     1.4743E+00                    -1.0018E+06                     1.8452E+06                    -2.6067E+06                     1.8452E+06                     6.2055E-02                     6.0418E-01                     6.3300E-01                     6.0418E-01                     0.0000E+00                     0.0000E+00                     0.0000E+00                     0.0000E+00                     0.0000E+00                     0.0000E+00                     0.0000E+00                     0.0000E+00                     0.0000E+00                     0.0000E+00                     0.0000E+00                     0.0000E+00                     0.0000E+00                     0.0000E+00                     0.0000E+00                     0.0000E+00                     0.0000E+00                     0.0000E+00                     0.0000E+00                     0.0000E+00                     0.0000E+00                     0.0000E+00                     0.0000E+00                     0.0000E+00
    0.0750                    -1.7533E-01                     3.2816E+05                     9.2087E-02                     5.2718E+07                     3.0344E+00                    -6.3766E+06                     3.2420E+00                     1.9535E+05                    -9.8167E+04                     3.4139E+05                    -9.8167E+04                    -4.0164E-02                     5.9479E-02                     1.3293E-02                     5.9479E-02                    -6.2732E+04                     2.9419E+05                     7.1394E+04                     2.9419E+05                    -2.8517E-01                     1.4741E+00                     3.7131E-01                     1.4741E+00                    -9.9944E+05                     1.7217E+06                    -2.6831E+06                     1.7217E+06                     6.2421E-02                     6.0696E-01                     6.3238E-01                     6.0696E-01                     1.9535E+05                    -9.8167E+04                     3.4139E+05                    -9.8167E+04                    -4.0164E-02                     5.9479E-02                     1.3293E-02                     5.9479E-02                    -6.2732E+04                     2.9419E+05                     7.1394E+04                     2.9419E+05                    -2.8517E-01                     1.4741E+00                     3.7131E-01                     1.4741E+00                    -9.9944E+05                     1.7217E+06                    -2.6831E+06                     1.7217E+06                     6.2421E-02                     6.0696E-01                     6.3238E-01                     6.0696E-01                     0.0000E+00                     0.0000E+00                     0.0000E+00                     0.0000E+00                     0.0000E+00                     0.0000E+00                     0.0000E+00                     0.0000E+00                     0.0000E+00                     0.0000E+00                     0.0000E+00                     0.0000E+00                     0.0000E+00                     0.0000E+00                     0.0000E+00                     0.0000E+00                     0.0000E+00                     0.0000E+00                     0.0000E+00                     0.0000E+00                     0.0000E+00                     0.0000E+00                     0.0000E+00                     0.0000E+00
    0.0875                    -1.7012E-01                     3.5641E+05                     9.1554E-02                     5.2712E+07                     3.0291E+00                    -6.7046E+06                     3.2761E+00                     1.9515E+05                    -8.8254E+04                     3.4994E+05                    -8.8254E+04                    -4.0163E-02                     5.9633E-02                     1.2450E-02                     5.9633E-02                    -6.2881E+04                     2.9205E+05                     6.9179E+04                     2.9205E+05                    -2.8742E-01                     1.4739E+00                     3.6864E-01                     1.4739E+00                    -9.9705E+05                     1.5981E+06                    -2.7595E+06                     1.5981E+06                     6.2787E-02                     6.0975E-01                     6.3176E-01                     6.0975E-01                     1.9515E+05                    -8.8254E+04                     3.4994E+05                    -8.8254E+04                    -4.0163E-02                     5.9633E-02                     1.2450E-02                     5.9633E-02                    -6.2881E+04                     2.9205E+05                     6.9179E+04                     2.9205E+05                    -2.8742E-01                     1.4739E+00                     3.6864E-01                     1.4739E+00                    -9.9705E+05                     1.5981E+06                    -2.7595E+06                     1.5981E+06                     6.2787E-02                     6.0975E-01                     6.3176E-01                     6.0975E-01                     0.0000E+00                     0.0000E+00                     0.0000E+00                     0.0000E+00                     0.0000E+00                     0.0000E+00                     0.0000E+00                     0.0000E+00                     0.0000E+00                     0.0000E+00                     0.0000E+00                     0.0000E+00                     0.0000E+00                     0.0000E+00                     0.0000E+00                     0.0000E+00                     0.0000E+00                     0.0000E+00                     0.0000E+00                     0.0000E+00                     0.0000E+00                     0.0000E+00                     0.0000E+00                     0.0000E+00
    0.1000                    -1.6492E-01                     3.8466E+05                     9.1022E-02                     5.2706E+07                     3.0237E+00                    -7.0324E+06                     3.3102E+00                     1.9494E+05                    -7.8342E+04                     3.5849E+05                    -7.8342E+04                    -4.0161E-02                     5.9788E-02                     1.1608E-02                     5.9788E-02                    -6.3031E+04                     2.8990E+05                     6.6965E+04                     2.8990E+05                    -2.8966E-01                     1.4737E+00                     3.6598E-01                     1.4737E+00                    -9.9465E+05                     1.4745E+06                    -2.8359E+06                     1.4745E+06                     6.3154E-02                     6.1254E-01                     6.3115E-01                     6.1254E-01                     1.9494E+05                    -7.8342E+04                     3.5849E+05                    -7.8342E+04                    -4.0161E-02                     5.9788E-02                     1.1608E-02                     5.9788E-02                    -6.3031E+04                     2.8990E+05                     6.6965E+04                     2.8990E+05                    -2.8966E-01                     1.4737E+00                     3.6598E-01                     1.4737E+00                    -9.9465E+05                     1.4745E+06                    -2.8359E+06                     1.4745E+06                     6.3154E-02                     6.1254E-01                     6.3115E-01                     6.1254E-01                     0.0000E+00                     0.0000E+00                     0.0000E+00                     0.0000E+00                     0.0000E+00                     0.0000E+00                     0.0000E+00                     0.0000E+00                     0.0000E+00                     0.0000E+00                     0.0000E+00                     0.0000E+00                     0.0000E+00                     0.0000E+00                     0.0000E+00                     0.0000E+00                     0.0000E+00                     0.0000E+00                     0.0000E+00                     0.0000E+00                     0.0000E+00                     0.0000E+00                     0.0000E+00                     0.0000E+00
    0.1125                    -1.5972E-01                     4.1291E+05                     9.0489E-02                     5.2699E+07                     3.0184E+00                    -7.3602E+06                     3.3443E+00                     1.9474E+05                    -6.8429E+04                     3.6704E+05                    -6.8429E+04                    -4.0160E-02                     5.9942E-02                     1.0765E-02                     5.9942E-02                    -6.3180E+04                     2.8776E+05                     6.4750E+04                     2.8776E+05                    -2.9191E-01                     1.4735E+00                     3.6331E-01                     1.4735E+00                    -9.9225E+05                     1.3510E+06                    -2.9123E+06                     1.3510E+06                     6.3520E-02                     6.1533E-01                     6.3053E-01                     6.1533E-01                     1.9474E+05                    -6.8429E+04                     3.6704E+05                    -6.8429E+04                    -4.0160E-02                     5.9942E-02                     1.0765E-02                     5.9942E-02                    -6.3180E+04                     2.8776E+05                     6.4750E+04                     2.8776E+05                    -2.9191E-01                     1.4735E+00                     3.6331E-01                     1.4735E+00                    -9.9225E+05                     1.3510E+06                    -2.9123E+06                     1.3510E+06                     6.3520E-02                     6.1533E-01                     6.3053E-01                     6.1533E-01                     0.0000E+00                     0.0000E+00                     0.0000E+00                     0.0000E+00                     0.0000E+00                     0.0000E+00                     0.0000E+00                     0.0000E+00                     0.0000E+00                     0.0000E+00                     0.0000E+00                     0.0000E+00                     0.0000E+00                     0.0000E+00                     0.0000E+00                     0.0000E+00                     0.0000E+00                     0.0000E+00                     0.0000E+00                     0.0000E+00                     0.0000E+00                     0.0000E+00                     0.0000E+00                     0.0000E+00
    0.1250                    -1.5452E-01                     4.4116E+05                     8.9957E-02                     5.2693E+07                     3.0131E+00                    -7.6878E+06                     3.3784E+00                     1.9453E+05                    -5.8516E+04                     3.7559E+05                    -5.8516E+04                    -4.0159E-02                     6.0097E-02                     9.9223E-03                     6.0097E-02                    -6.3330E+04                     2.8562E+05                     6.2536E+04                     2.8562E+05                    -2.9415E-01                     1.4733E+00                     3.6065E-01                     1.4733E+00                    -9.8986E+05                     1.2274E+06                    -2.9887E+06                     1.2274E+06                     6.3887E-02                     6.1811E-01                     6.2991E-01                     6.1811E-01                     1.9453E+05                    -5.8516E+04                     3.7559E+05                    -5.8516E+04                    -4.0159E-02                     6.0097E-02                     9.9223E-03                     6.0097E-02                    -6.3330E+04                     2.8562E+05                     6.2536E+04                     2.8562E+05                    -2.9415E-01                     1.4733E+00                     3.6065E-01                     1.4733E+00                    -9.8986E+05                     1.2274E+06                    -2.9887E+06                     1.2274E+06                     6.3887E-02                     6.1811E-01                     6.2991E-01                     6.1811E-01                     0.0000E+00                     0.0000E+00                     0.0000E+00                     0.0000E+00                     0.0000E+00                     0.0000E+00                     0.0000E+00                     0.0000E+00                     0.0000E+00                     0.0000E+00                     0.0000E+00                     0.0000E+00                     0.0000E+00                     0.0000E+00                     0.0000E+00                     0.0000E+00                     0.0000E+00                     0.0000E+00                     0.0000E+00                     0.0000E+00                     0.0000E+00                     0.0000E+00                     0.0000E+00                     0.0000E+00
    0.1375                    -1.4931E-01                     4.6941E+05                     8.9424E-02                     5.2686E+07                     3.0078E+00                    -8.0154E+06                     3.4125E+00                     1.9433E+05                    -4.8604E+04                     3.8414E+05                    -4.8604E+04                    -4.0158E-02                     6.0251E-02                     9.0796E-03                     6.0251E-02                    -6.3479E+04                     2.8348E+05                     6.0321E+04                     2.8348E+05                    -2.9640E-01                     1.4731E+00                     3.5798E-01                     1.4731E+00                    -9.8746E+05                     1.1038E+06                    -3.0651E+06                     1.1038E+06                     6.4253E-02                     6.2090E-01                     6.2930E-01                     6.2090E-01                     1.9433E+05                    -4.8604E+04                     3.8414E+05                    -4.8604E+04                    -4.0158E-02                     6.0251E-02                     9.0796E-03                     6.0251E-02                    -6.3479E+04                     2.8348E+05                     6.0321E+04                     2.8348E+05                    -2.9640E-01                     1.4731E+00                     3.5798E-01                     1.4731E+00                    -9.8746E+05                     1.1038E+06                    -3.0651E+06                     1.1038E+06                     6.4253E-02                     6.2090E-01                     6.2930E-01                     6.2090E-01                     0.0000E+00                     0.0000E+00                     0.0000E+00                     0.0000E+00                     0.0000E+00                     0.0000E+00                     0.0000E+00                     0.0000E+00                     0.0000E+00                     0.0000E+00                     0.0000E+00                     0.0000E+00                     0.0000E+00                     0.0000E+00                     0.0000E+00                     0.0000E+00                     0.0000E+00                     0.0000E+00                     0.0000E+00                     0.0000E+00                     0.0000E+00                     0.0000E+00                     0.0000E+00                     0.0000E+00
    0.1500                    -1.4411E-01                     4.9766E+05                     8.8892E-02                     5.2680E+07                     3.0025E+00                    -8.3429E+06                     3.4467E+00                     1.9413E+05                    -3.8691E+04                     3.9269E+05                    -3.8691E+04                    -4.0156E-02                     6.0406E-02                     8.2369E-03                     6.0406E-02                    -6.3629E+04                     2.8134E+05                     5.8107E+04                     2.8134E+05                    -2.9864E-01                     1.4729E+00                     3.5531E-01                     1.4729E+00                    -9.8507E+05                     9.8027E+05                    -3.1414E+06                     9.8027E+05                     6.4619E-02                     6.2369E-01                     6.2868E-01                     6.2369E-01                     1.9413E+05                    -3.8691E+04                     3.9269E+05                    -3.8691E+04                    -4.0156E-02                     6.0406E-02                     8.2369E-03                     6.0406E-02                    -6.3629E+04                     2.8134E+05                     5.8107E+04                     2.8134E+05                    -2.9864E-01                     1.4729E+00                     3.5531E-01                     1.4729E+00                    -9.8507E+05                     9.8027E+05                    -3.1414E+06                     9.8027E+05                     6.4619E-02                     6.2369E-01                     6.2868E-01                     6.2369E-01                     0.0000E+00                     0.0000E+00                     0.0000E+00                     0.0000E+00                     0.0000E+00                     0.0000E+00                     0.0000E+00                     0.0000E+00                     0.0000E+00                     0.0000E+00                     0.0000E+00                     0.0000E+00                     0.0000E+00                     0.0000E+00                     0.0000E+00                     0.0000E+00                     0.0000E+00                     0.0000E+00                     0.0000E+00                     0.0000E+00                     0.0000E+00                     0.0000E+00                     0.0000E+00                     0.0000E+00
    0.1625                    -1.3891E-01                     5.2590E+05                     8.8359E-02                     5.2673E+07                     2.9971E+00                    -8.6703E+06                     3.4808E+00                     1.9392E+05                    -2.8779E+04                     4.0123E+05                    -2.8779E+04                    -4.0155E-02                     6.0560E-02                     7.3943E-03                     6.0560E-02                    -6.3778E+04                     2.7920E+05                     5.5892E+04                     2.7920E+05                    -3.0088E-01                     1.4727E+00                     3.5265E-01                     1.4727E+00                    -9.8267E+05                     8.5670E+05                    -3.2178E+06                     8.5670E+05                     6.4986E-02                     6.2648E-01                     6.2806E-01                     6.2648E-01                     1.9392E+05                    -2.8779E+04                     4.0123E+05                    -2.8779E+04                    -4.0155E-02                     6.0560E-02                     7.3943E-03                     6.0560E-02                    -6.3778E+04                     2.7920E+05                     5.5892E+04                     2.7920E+05                    -3.0088E-01                     1.4727E+00                     3.5265E-01                     1.4727E+00                    -9.8267E+05                     8.5670E+05                    -3.2178E+06                     8.5670E+05                     6.4986E-02                     6.2648E-01                     6.2806E-01                     6.2648E-01                     0.0000E+00                     0.0000E+00                     0.0000E+00                     0.0000E+00                     0.0000E+00                     0.0000E+00                     0.0000E+00                     0.0000E+00                     0.0000E+00                     0.0000E+00                     0.0000E+00                     0.0000E+00                     0.0000E+00                     0.0000E+00                     0.0000E+00                     0.0000E+00                     0.0000E+00                     0.0000E+00                     0.0000E+00                     0.0000E+00                     0.0000E+00                     0.0000E+00                     0.0000E+00                     0.0000E+00
    0.1750                    -1.3370E-01                     5.5415E+05                     8.7827E-02                     5.2667E+07                     2.9918E+00                    -8.9976E+06                     3.5149E+00                     1.9372E+05                    -1.8866E+04                     4.0978E+05                    -1.8866E+04                    -4.0154E-02                     6.0715E-02                     6.5516E-03                     6.0715E-02                    -6.3928E+04                     2.7705E+05                     5.3678E+04                     2.7705E+05                    -3.0313E-01                     1.4725E+00                     3.4998E-01                     1.4725E+00                    -9.8027E+05                     7.3313E+05                    -3.2942E+06                     7.3313E+05                     6.5352E-02                     6.2927E-01                     6.2745E-01                     6.2927E-01                     1.9372E+05                    -1.8866E+04                     4.0978E+05                    -1.8866E+04                    -4.0154E-02                     6.0715E-02                     6.5516E-03                     6.0715E-02                    -6.3928E+04                     2.7705E+05                     5.3678E+04                     2.7705E+05                    -3.0313E-01                     1.4725E+00                     3.4998E-01                     1.4725E+00                    -9.8027E+05                     7.3313E+05                    -3.2942E+06                     7.3313E+05                     6.5352E-02                     6.2927E-01                     6.2745E-01                     6.2927E-01                     0.0000E+00                     0.0000E+00                     0.0000E+00                     0.0000E+00                     0.0000E+00                     0.0000E+00                     0.0000E+00                     0.0000E+00                     0.0000E+00                     0.0000E+00                     0.0000E+00                     0.0000E+00                     0.0000E+00                     0.0000E+00                     0.0000E+00                     0.0000E+00                     0.0000E+00                     0.0000E+00                     0.0000E+00                     0.0000E+00                     0.0000E+00                     0.0000E+00                     0.0000E+00                     0.0000E+00
    0.1875                    -1.2850E-01                     5.8239E+05                     8.7294E-02                     5.2660E+07                     2.9865E+00                    -9.3248E+06                     3.5490E+00                     1.9351E+05                    -8.9536E+03                     4.1833E+05                    -8.9536E+03                    -4.0153E-02                     6.0869E-02                     5.7089E-03                     6.0869E-02                    -6.4078E+04                     2.7491E+05                     5.1463E+04                     2.7491E+05                    -3.0537E-01                     1.4723E+00                     3.4732E-01                     1.4723E+00                    -9.7788E+05                     6.0956E+05                    -3.3706E+06                     6.0956E+05                     6.5718E-02                     6.3205E-01                     6.2683E-01                     6.3205E-01                     1.9351E+05                    -8.9536E+03                     4.1833E+05                    -8.9536E+03                    -4.0153E-02                     6.0869E-02                     5.7089E-03                     6.0869E-02                    -6.4078E+04                     2.7491E+05                     5.1463E+04                     2.7491E+05                    -3.0537E-01                     1.4723E+00                     3.4732E-01                     1.4723E+00                    -9.7788E+05                     6.0956E+05                    -3.3706E+06                     6.0956E+05                     6.5718E-02                     6.3205E-01                     6.2683E-01                     6.3205E-01                     0.0000E+00                     0.0000E+00                     0.0000E+00                     0.0000E+00                     0.0000E+00                     0.0000E+00                     0.0000E+00                     0.0000E+00                     0.0000E+00                     0.0000E+00                     0.0000E+00                     0.0000E+00                     0.0000E+00                     0.0000E+00                     0.0000E+00                     0.0000E+00                     0.0000E+00                     0.0000E+00                     0.0000E+00                     0.0000E+00                     0.0000E+00                     0.0000E+00                     0.0000E+00                     0.0000E+00
    0.2000                    -1.2330E-01                     6.1063E+05                     8.6762E-02                     5.2654E+07                     2.9812E+00                    -9.6519E+06                     3.5831E+00                     1.9331E+05                     9.5900E+02                     4.2688E+05                     9.5900E+02                    -4.0151E-02                     6.1023E-02                     4.8662E-03                     6.1023E-02                    -6.4227E+04                     2.7277E+05                     4.9249E+04                     2.7277E+05                    -3.0762E-01                     1.4721E+00                     3.4465E-01                     1.4721E+00                    -9.7548E+05                     4.8599E+05                    -3.4470E+06                     4.8599E+05                     6.6085E-02                     6.3484E-01                     6.2621E-01                     6.3484E-01                     1.9331E+05                     9.5900E+02                     4.2688E+05                     9.5900E+02                    -4.0151E-02                     6.1023E-02                     4.8662E-03                     6.1023E-02                    -6.4227E+04                     2.7277E+05                     4.9249E+04                     2.7277E+05                    -3.0762E-01                     1.4721E+00                     3.4465E-01                     1.4721E+00                    -9.7548E+05                     4.8599E+05                    -3.4470E+06                     4.8599E+05                     6.6085E-02                     6.3484E-01                     6.2621E-01                     6.3484E-01                     0.0000E+00                     0.0000E+00                     0.0000E+00                     0.0000E+00                     0.0000E+00                     0.0000E+00                     0.0000E+00                     0.0000E+00                     0.0000E+00                     0.0000E+00                     0.0000E+00                     0.0000E+00                     0.0000E+00                     0.0000E+00                     0.0000E+00                     0.0000E+00                     0.0000E+00                     0.0000E+00                     0.0000E+00                     0.0000E+00                     0.0000E+00                     0.0000E+00                     0.0000E+00                     0.0000E+00
    0.2125                    -1.1849E-01                     6.3552E+05                     8.6350E-02                     5.2647E+07                     2.9735E+00                    -9.9409E+06                     3.6146E+00                     1.9225E+05                     1.0400E+04                     4.3385E+05                     1.0400E+04                    -4.0098E-02                     6.1187E-02                     4.0729E-03                     6.1187E-02                    -6.4352E+04                     2.7021E+05                     4.6930E+04                     2.7021E+05                    -3.0965E-01                     1.4705E+00                     3.4206E-01                     1.4705E+00                    -9.6892E+05                     3.7013E+05                    -3.5139E+06                     3.7013E+05                     6.6391E-02                     6.3712E-01                     6.2527E-01                     6.3712E-01                     1.9225E+05                     1.0400E+04                     4.3385E+05                     1.0400E+04                    -4.0098E-02                     6.1187E-02                     4.0729E-03                     6.1187E-02                    -6.4352E+04                     2.7021E+05                     4.6930E+04                     2.7021E+05                    -3.0965E-01                     1.4705E+00                     3.4206E-01                     1.4705E+00                    -9.6892E+05                     3.7013E+05                    -3.5139E+06                     3.7013E+05                     6.6391E-02                     6.3712E-01                     6.2527E-01                     6.3712E-01                     0.0000E+00                     0.0000E+00                     0.0000E+00                     0.0000E+00                     0.0000E+00                     0.0000E+00                     0.0000E+00                     0.0000E+00                     0.0000E+00                     0.0000E+00                     0.0000E+00                     0.0000E+00                     0.0000E+00                     0.0000E+00                     0.0000E+00                     0.0000E+00                     0.0000E+00                     0.0000E+00                     0.0000E+00                     0.0000E+00                     0.0000E+00                     0.0000E+00                     0.0000E+00                     0.0000E+00
    0.2250                    -1.1369E-01                     6.6040E+05                     8.5938E-02                     5.2639E+07                     2.9658E+00                    -1.0230E+07                     3.6462E+00                     1.9119E+05                     1.9840E+04                     4.4083E+05                     1.9840E+04                    -4.0044E-02                     6.1351E-02                     3.2796E-03                     6.1351E-02                    -6.4476E+04                     2.6765E+05                     4.4611E+04                     2.6765E+05                    -3.1168E-01                     1.4690E+00                     3.3946E-01                     1.4690E+00                    -9.6237E+05                     2.5426E+05                    -3.5808E+06                     2.5426E+05                     6.6697E-02                     6.3939E-01                     6.2432E-01                     6.3939E-01                     1.9119E+05                     1.9840E+04                     4.4083E+05                     1.9840E+04                    -4.0044E-02                     6.1351E-02                     3.2796E-03                     6.1351E-02                    -6.4476E+04                     2.6765E+05                     4.4611E+04                     2.6765E+05                    -3.1168E-01                     1.4690E+00                     3.3946E-01                     1.4690E+00                    -9.6237E+05                     2.5426E+05                    -3.5808E+06                     2.5426E+05                     6.6697E-02                     6.3939E-01                     6.2432E-01                     6.3939E-01                     0.0000E+00                     0.0000E+00                     0.0000E+00                     0.0000E+00                     0.0000E+00                     0.0000E+00                     0.0000E+00                     0.0000E+00                     0.0000E+00                     0.0000E+00                     0.0000E+00                     0.0000E+00                     0.0000E+00                     0.0000E+00                     0.0000E+00                     0.0000E+00                     0.0000E+00                     0.0000E+00                     0.0000E+00                     0.0000E+00                     0.0000E+00                     0.0000E+00                     0.0000E+00                     0.0000E+00
    0.2375                    -1.0888E-01                     6.8529E+05                     8.5525E-02                     5.2632E+07                     2.9581E+00                    -1.0519E+07                     3.6777E+00                     1.9013E+05                     2.9281E+04                     4.4780E+05                     2.9281E+04                    -3.9990E-02                     6.1515E-02                     2.4863E-03                     6.1515E-02                    -6.4601E+04                     2.6509E+05                     4.2292E+04                     2.6509E+05                    -3.1371E-01                     1.4675E+00                     3.3687E-01                     1.4675E+00                    -9.5581E+05                     1.3839E+05                    -3.6476E+06                     1.3839E+05                     6.7003E-02                     6.4167E-01                     6.2338E-01                     6.4167E-01                     1.9013E+05                     2.9281E+04                     4.4780E+05                     2.9281E+04                    -3.9990E-02                     6.1515E-02                     2.4863E-03                     6.1515E-02                    -6.4601E+04                     2.6509E+05                     4.2292E+04                     2.6509E+05                    -3.1371E-01                     1.4675E+00                     3.3687E-01                     1.4675E+00                    -9.5581E+05                     1.3839E+05                    -3.6476E+06                     1.3839E+05                     6.7003E-02                     6.4167E-01                     6.2338E-01                     6.4167E-01                     0.0000E+00                     0.0000E+00                     0.0000E+00                     0.0000E+00                     0.0000E+00                     0.0000E+00                     0.0000E+00                     0.0000E+00                     0.0000E+00                     0.0000E+00                     0.0000E+00                     0.0000E+00                     0.0000E+00                     0.0000E+00                     0.0000E+00                     0.0000E+00                     0.0000E+00                     0.0000E+00                     0.0000E+00                     0.0000E+00                     0.0000E+00                     0.0000E+00                     0.0000E+00                     0.0000E+00
    0.2500                    -1.0408E-01                     7.1017E+05                     8.5113E-02                     5.2624E+07                     2.9504E+00                    -1.0807E+07                     3.7093E+00                     1.8907E+05                     3.8722E+04                     4.5477E+05                     3.8722E+04                    -3.9936E-02                     6.1678E-02                     1.6930E-03                     6.1678E-02                    -6.4726E+04                     2.6252E+05                     3.9973E+04                     2.6252E+05                    -3.1574E-01                     1.4659E+00                     3.3428E-01                     1.4659E+00                    -9.4925E+05                     2.2522E+04                    -3.7145E+06                     2.2522E+04                     6.7309E-02                     6.4394E-01                     6.2243E-01                     6.4394E-01                     1.8907E+05                     3.8722E+04                     4.5477E+05                     3.8722E+04                    -3.9936E-02                     6.1678E-02                     1.6930E-03                     6.1678E-02                    -6.4726E+04                     2.6252E+05                     3.9973E+04                     2.6252E+05                    -3.1574E-01                     1.4659E+00                     3.3428E-01                     1.4659E+00                    -9.4925E+05                     2.2522E+04                    -3.7145E+06                     2.2522E+04                     6.7309E-02                     6.4394E-01                     6.2243E-01                     6.4394E-01                     0.0000E+00                     0.0000E+00                     0.0000E+00                     0.0000E+00                     0.0000E+00                     0.0000E+00                     0.0000E+00                     0.0000E+00                     0.0000E+00                     0.0000E+00                     0.0000E+00                     0.0000E+00                     0.0000E+00                     0.0000E+00                     0.0000E+00                     0.0000E+00                     0.0000E+00                     0.0000E+00                     0.0000E+00                     0.0000E+00                     0.0000E+00                     0.0000E+00                     0.0000E+00                     0.0000E+00
    0.2625                    -9.9272E-02                     7.3506E+05                     8.4701E-02                     5.2617E+07                     2.9427E+00                    -1.1096E+07                     3.7408E+00                     1.8801E+05                     4.8162E+04                     4.6174E+05                     4.8162E+04                    -3.9882E-02                     6.1842E-02                     8.9968E-04                     6.1842E-02                    -6.4851E+04                     2.5996E+05                     3.7655E+04                     2.5996E+05                    -3.1777E-01                     1.4644E+00                     3.3168E-01                     1.4644E+00                    -9.4270E+05                    -9.3346E+04                    -3.7814E+06                    -9.3346E+04                     6.7615E-02                     6.4622E-01                     6.2149E-01                     6.4622E-01                     1.8801E+05                     4.8162E+04                     4.6174E+05                     4.8162E+04                    -3.9882E-02                     6.1842E-02                     8.9968E-04                     6.1842E-02                    -6.4851E+04                     2.5996E+05                     3.7655E+04                     2.5996E+05                    -3.1777E-01                     1.4644E+00                     3.3168E-01                     1.4644E+00                    -9.4270E+05                    -9.3346E+04                    -3.7814E+06                    -9.3346E+04                     6.7615E-02                     6.4622E-01                     6.2149E-01                     6.4622E-01                     0.0000E+00                     0.0000E+00                     0.0000E+00                     0.0000E+00                     0.0000E+00                     0.0000E+00                     0.0000E+00                     0.0000E+00                     0.0000E+00                     0.0000E+00                     0.0000E+00                     0.0000E+00                     0.0000E+00                     0.0000E+00                     0.0000E+00                     0.0000E+00                     0.0000E+00                     0.0000E+00                     0.0000E+00                     0.0000E+00                     0.0000E+00                     0.0000E+00                     0.0000E+00                     0.0000E+00
    0.2750                    -9.4467E-02                     7.5994E+05                     8.4289E-02                     5.2610E+07                     2.9350E+00                    -1.1385E+07                     3.7723E+00                     1.8695E+05                     5.7603E+04                     4.6871E+05                     5.7603E+04                    -3.9828E-02                     6.2006E-02                     1.0637E-04                     6.2006E-02                    -6.4975E+04                     2.5740E+05                     3.5336E+04                     2.5740E+05                    -3.1980E-01                     1.4629E+00                     3.2909E-01                     1.4629E+00                    -9.3614E+05                    -2.0921E+05                    -3.8483E+06                    -2.0921E+05                     6.7921E-02                     6.4850E-01                     6.2054E-01                     6.4850E-01                     1.8695E+05                     5.7603E+04                     4.6871E+05                     5.7603E+04                    -3.9828E-02                     6.2006E-02                     1.0637E-04                     6.2006E-02                    -6.4975E+04                     2.5740E+05                     3.5336E+04                     2.5740E+05                    -3.1980E-01                     1.4629E+00                     3.2909E-01                     1.4629E+00                    -9.3614E+05                    -2.0921E+05                    -3.8483E+06                    -2.0921E+05                     6.7921E-02                     6.4850E-01                     6.2054E-01                     6.4850E-01                     0.0000E+00                     0.0000E+00                     0.0000E+00                     0.0000E+00                     0.0000E+00                     0.0000E+00                     0.0000E+00                     0.0000E+00                     0.0000E+00                     0.0000E+00                     0.0000E+00                     0.0000E+00                     0.0000E+00                     0.0000E+00                     0.0000E+00                     0.0000E+00                     0.0000E+00                     0.0000E+00                     0.0000E+00                     0.0000E+00                     0.0000E+00                     0.0000E+00                     0.0000E+00                     0.0000E+00
    0.2875                    -8.9661E-02                     7.8482E+05                     8.3877E-02                     5.2602E+07                     2.9273E+00                    -1.1673E+07                     3.8039E+00                     1.8589E+05                     6.7044E+04                     4.7569E+05                     6.7044E+04                    -3.9775E-02                     6.2169E-02                    -6.8693E-04                     6.2169E-02                    -6.5100E+04                     2.5484E+05                     3.3017E+04                     2.5484E+05                    -3.2183E-01                     1.4613E+00                     3.2650E-01                     1.4613E+00                    -9.2958E+05                    -3.2508E+05                    -3.9152E+06                    -3.2508E+05                     6.8227E-02                     6.5077E-01                     6.1960E-01                     6.5077E-01                     1.8589E+05                     6.7044E+04                     4.7569E+05                     6.7044E+04                    -3.9775E-02                     6.2169E-02                    -6.8693E-04                     6.2169E-02                    -6.5100E+04                     2.5484E+05                     3.3017E+04                     2.5484E+05                    -3.2183E-01                     1.4613E+00                     3.2650E-01                     1.4613E+00                    -9.2958E+05                    -3.2508E+05                    -3.9152E+06                    -3.2508E+05                     6.8227E-02                     6.5077E-01                     6.1960E-01                     6.5077E-01                     0.0000E+00                     0.0000E+00                     0.0000E+00                     0.0000E+00                     0.0000E+00                     0.0000E+00                     0.0000E+00                     0.0000E+00                     0.0000E+00                     0.0000E+00                     0.0000E+00                     0.0000E+00                     0.0000E+00                     0.0000E+00                     0.0000E+00                     0.0000E+00                     0.0000E+00                     0.0000E+00                     0.0000E+00                     0.0000E+00                     0.0000E+00                     0.0000E+00                     0.0000E+00                     0.0000E+00
    0.3000                    -8.4856E-02                     8.0970E+05                     8.3465E-02                     5.2595E+07                     2.9196E+00                    -1.1962E+07                     3.8354E+00                     1.8483E+05                     7.6484E+04                     4.8266E+05                     7.6484E+04                    -3.9721E-02                     6.2333E-02                    -1.4802E-03                     6.2333E-02                    -6.5225E+04                     2.5228E+05                     3.0698E+04                     2.5228E+05                    -3.2386E-01                     1.4598E+00                     3.2391E-01                     1.4598E+00                    -9.2303E+05                    -4.4095E+05                    -3.9820E+06                    -4.4095E+05                     6.8533E-02                     6.5305E-01                     6.1865E-01                     6.5305E-01                     1.8483E+05                     7.6484E+04                     4.8266E+05                     7.6484E+04                    -3.9721E-02                     6.2333E-02                    -1.4802E-03                     6.2333E-02                    -6.5225E+04                     2.5228E+05                     3.0698E+04                     2.5228E+05                    -3.2386E-01                     1.4598E+00                     3.2391E-01                     1.4598E+00                    -9.2303E+05                    -4.4095E+05                    -3.9820E+06                    -4.4095E+05                     6.8533E-02                     6.5305E-01                     6.1865E-01                     6.5305E-01                     0.0000E+00                     0.0000E+00                     0.0000E+00                     0.0000E+00                     0.0000E+00                     0.0000E+00                     0.0000E+00                     0.0000E+00                     0.0000E+00                     0.0000E+00                     0.0000E+00                     0.0000E+00                     0.0000E+00                     0.0000E+00                     0.0000E+00                     0.0000E+00                     0.0000E+00                     0.0000E+00                     0.0000E+00                     0.0000E+00                     0.0000E+00                     0.0000E+00                     0.0000E+00                     0.0000E+00
    0.3125                    -8.0051E-02                     8.3457E+05                     8.3053E-02                     5.2587E+07                     2.9119E+00                    -1.2250E+07                     3.8669E+00                     1.8377E+05                     8.5925E+04                     4.8963E+05                     8.5925E+04                    -3.9667E-02                     6.2497E-02                    -2.2735E-03                     6.2497E-02                    -6.5350E+04                     2.4972E+05                     2.8380E+04                     2.4972E+05                    -3.2589E-01                     1.4583E+00                     3.2131E-01                     1.4583E+00                    -9.1647E+05                    -5.5682E+05                    -4.0489E+06                    -5.5682E+05                     6.8839E-02                     6.5532E-01                     6.1770E-01                     6.5532E-01                     1.8377E+05                     8.5925E+04                     4.8963E+05                     8.5925E+04                    -3.9667E-02                     6.2497E-02                    -2.2735E-03                     6.2497E-02                    -6.5350E+04                     2.4972E+05                     2.8380E+04                     2.4972E+05                    -3.2589E-01                     1.4583E+00                     3.2131E-01                     1.4583E+00                    -9.1647E+05                    -5.5682E+05                    -4.0489E+06                    -5.5682E+05                     6.8839E-02                     6.5532E-01                     6.1770E-01                     6.5532E-01                     0.0000E+00                     0.0000E+00                     0.0000E+00                     0.0000E+00                     0.0000E+00                     0.0000E+00                     0.0000E+00                     0.0000E+00                     0.0000E+00                     0.0000E+00                     0.0000E+00                     0.0000E+00                     0.0000E+00                     0.0000E+00                     0.0000E+00                     0.0000E+00                     0.0000E+00                     0.0000E+00                     0.0000E+00                     0.0000E+00                     0.0000E+00                     0.0000E+00                     0.0000E+00                     0.0000E+00
    0.3250                    -7.5245E-02                     8.5945E+05                     8.2641E-02                     5.2580E+07                     2.9042E+00                    -1.2538E+07                     3.8985E+00                     1.8271E+05                     9.5366E+04                     4.9660E+05                     9.5366E+04                    -3.9613E-02                     6.2661E-02                    -3.0668E-03                     6.2661E-02                    -6.5474E+04                     2.4715E+05                     2.6061E+04                     2.4715E+05                    -3.2792E-01                     1.4567E+00                     3.1872E-01                     1.4567E+00                    -9.0991E+05                    -6.7269E+05                    -4.1158E+06                    -6.7269E+05                     6.9145E-02                     6.5760E-01                     6.1676E-01                     6.5760E-01                     1.8271E+05                     9.5366E+04                     4.9660E+05                     9.5366E+04                    -3.9613E-02                     6.2661E-02                    -3.0668E-03                     6.2661E-02                    -6.5474E+04                     2.4715E+05                     2.6061E+04                     2.4715E+05                    -3.2792E-01                     1.4567E+00                     3.1872E-01                     1.4567E+00                    -9.0991E+05                    -6.7269E+05                    -4.1158E+06                    -6.7269E+05                     6.9145E-02                     6.5760E-01                     6.1676E-01                     6.5760E-01                     0.0000E+00                     0.0000E+00                     0.0000E+00                     0.0000E+00                     0.0000E+00                     0.0000E+00                     0.0000E+00                     0.0000E+00                     0.0000E+00                     0.0000E+00                     0.0000E+00                     0.0000E+00                     0.0000E+00                     0.0000E+00                     0.0000E+00                     0.0000E+00                     0.0000E+00                     0.0000E+00                     0.0000E+00                     0.0000E+00                     0.0000E+00                     0.0000E+00                     0.0000E+00                     0.0000E+00
    0.3375                    -7.0440E-02                     8.8432E+05                     8.2229E-02                     5.2572E+07                     2.8965E+00                    -1.2827E+07                     3.9300E+00                     1.8165E+05                     1.0481E+05                     5.0357E+05                     1.0481E+05                    -3.9559E-02                     6.2824E-02                    -3.8601E-03                     6.2824E-02                    -6.5599E+04                     2.4459E+05                     2.3742E+04                     2.4459E+05                    -3.2995E-01                     1.4552E+00                     3.1613E-01                     1.4552E+00                    -9.0336E+05                    -7.8855E+05                    -4.1827E+06                    -7.8855E+05                     6.9451E-02                     6.5987E-01                     6.1581E-01                     6.5987E-01                     1.8165E+05                     1.0481E+05                     5.0357E+05                     1.0481E+05                    -3.9559E-02                     6.2824E-02                    -3.8601E-03                     6.2824E-02                    -6.5599E+04                     2.4459E+05                     2.3742E+04                     2.4459E+05                    -3.2995E-01                     1.4552E+00                     3.1613E-01                     1.4552E+00                    -9.0336E+05                    -7.8855E+05                    -4.1827E+06                    -7.8855E+05                     6.9451E-02                     6.5987E-01                     6.1581E-01                     6.5987E-01                     0.0000E+00                     0.0000E+00                     0.0000E+00                     0.0000E+00                     0.0000E+00                     0.0000E+00                     0.0000E+00                     0.0000E+00                     0.0000E+00                     0.0000E+00                     0.0000E+00                     0.0000E+00                     0.0000E+00                     0.0000E+00                     0.0000E+00                     0.0000E+00                     0.0000E+00                     0.0000E+00                     0.0000E+00                     0.0000E+00                     0.0000E+00                     0.0000E+00                     0.0000E+00                     0.0000E+00
    0.3500                    -6.5635E-02                     9.0919E+05                     8.1817E-02                     5.2565E+07                     2.8888E+00                    -1.3115E+07                     3.9616E+00                     1.8060E+05                     1.1425E+05                     5.1055E+05                     1.1425E+05                    -3.9505E-02                     6.2988E-02                    -4.6535E-03                     6.2988E-02                    -6.5724E+04                     2.4203E+05                     2.1423E+04                     2.4203E+05                    -3.3198E-01                     1.4536E+00                     3.1353E-01                     1.4536E+00                    -8.9680E+05                    -9.0442E+05                    -4.2496E+06                    -9.0442E+05                     6.9757E-02                     6.6215E-01                     6.1487E-01                     6.6215E-01                     1.8060E+05                     1.1425E+05                     5.1055E+05                     1.1425E+05                    -3.9505E-02                     6.2988E-02                    -4.6535E-03                     6.2988E-02                    -6.5724E+04                     2.4203E+05                     2.1423E+04                     2.4203E+05                    -3.3198E-01                     1.4536E+00                     3.1353E-01                     1.4536E+00                    -8.9680E+05                    -9.0442E+05                    -4.2496E+06                    -9.0442E+05                     6.9757E-02                     6.6215E-01                     6.1487E-01                     6.6215E-01                     0.0000E+00                     0.0000E+00                     0.0000E+00                     0.0000E+00                     0.0000E+00                     0.0000E+00                     0.0000E+00                     0.0000E+00                     0.0000E+00                     0.0000E+00                     0.0000E+00                     0.0000E+00                     0.0000E+00                     0.0000E+00                     0.0000E+00                     0.0000E+00                     0.0000E+00                     0.0000E+00                     0.0000E+00                     0.0000E+00                     0.0000E+00                     0.0000E+00                     0.0000E+00                     0.0000E+00
    0.3625                    -6.0829E-02                     9.3406E+05                     8.1405E-02                     5.2558E+07                     2.8811E+00                    -1.3403E+07                     3.9931E+00                     1.7954E+05                     1.2369E+05                     5.1752E+05                     1.2369E+05                    -3.9452E-02                     6.3152E-02                    -5.4468E-03                     6.3152E-02                    -6.5848E+04                     2.3947E+05                     1.9104E+04                     2.3947E+05                    -3.3401E-01                     1.4521E+00                     3.1094E-01                     1.4521E+00                    -8.9024E+05                    -1.0203E+06                    -4.3164E+06                    -1.0203E+06                     7.0063E-02                     6.6442E-01                     6.1392E-01                     6.6442E-01                     1.7954E+05                     1.2369E+05                     5.1752E+05                     1.2369E+05                    -3.9452E-02                     6.3152E-02                    -5.4468E-03                     6.3152E-02                    -6.5848E+04                     2.3947E+05                     1.9104E+04                     2.3947E+05                    -3.3401E-01                     1.4521E+00                     3.1094E-01                     1.4521E+00                    -8.9024E+05                    -1.0203E+06                    -4.3164E+06                    -1.0203E+06                     7.0063E-02                     6.6442E-01                     6.1392E-01                     6.6442E-01                     0.0000E+00                     0.0000E+00                     0.0000E+00                     0.0000E+00                     0.0000E+00                     0.0000E+00                     0.0000E+00                     0.0000E+00                     0.0000E+00                     0.0000E+00                     0.0000E+00                     0.0000E+00                     0.0000E+00                     0.0000E+00                     0.0000E+00                     0.0000E+00                     0.0000E+00                     0.0000E+00                     0.0000E+00                     0.0000E+00                     0.0000E+00                     0.0000E+00                     0.0000E+00                     0.0000E+00
[...]
    1.1500                     8.0916E-02                     1.8664E+06                     6.7698E-02                     5.2035E+07                     2.2185E+00                    -2.4067E+07                     5.2879E+00                     1.3164E+04                     5.9594E+05                     6.6592E+05                     5.9594E+05                    -3.1380E-02                     7.0047E-02                    -4.1015E-02                     7.0047E-02                    -7.0665E+04                     4.7292E+04                    -1.1796E+05                     4.7292E+04                    -4.2329E-01                     1.2420E+00                     1.5784E-01                     1.2420E+00                    -4.0044E+04                    -6.4267E+06                    -6.5159E+06                    -6.4267E+06                     7.7330E-02                     7.4213E-01                     5.2028E-01                     7.4213E-01                     1.3164E+04                     5.9594E+05                     6.6592E+05                     5.9594E+05                    -3.1380E-02                     7.0047E-02                    -4.1015E-02                     7.0047E-02                    -7.0665E+04                     4.7292E+04                    -1.1796E+05                     4.7292E+04                    -4.2329E-01                     1.2420E+00                     1.5784E-01                     1.2420E+00                    -4.0044E+04                    -6.4267E+06                    -6.5159E+06                    -6.4267E+06                     7.7330E-02                     7.4213E-01                     5.2028E-01                     7.4213E-01                     0.0000E+00                     0.0000E+00                     0.0000E+00                     0.0000E+00                     0.0000E+00                     0.0000E+00                     0.0000E+00                     0.0000E+00                     0.0000E+00                     0.0000E+00                     0.0000E+00                     0.0000E+00                     0.0000E+00                     0.0000E+00                     0.0000E+00                     0.0000E+00                     0.0000E+00                     0.0000E+00                     0.0000E+00                     0.0000E+00                     0.0000E+00                     0.0000E+00                     0.0000E+00                     0.0000E+00
    1.1625                     8.0648E-02                     1.8730E+06                     6.7558E-02                     5.2027E+07                     2.2070E+00                    -2.4140E+07                     5.2984E+00                     9.7009E+03                     6.0152E+05                     6.6472E+05                     6.0152E+05                    -3.1223E-02                     7.0077E-02                    -4.1374E-02                     7.0077E-02                    -7.0708E+04                     4.4135E+04                    -1.1986E+05                     4.4135E+04                    -4.2420E-01                     1.2378E+00                     1.5555E-01                     1.2378E+00                    -2.3355E+04                    -6.4849E+06                    -6.5244E+06                    -6.4849E+06                     7.7287E-02                     7.4266E-01                     5.1850E-01                     7.4266E-01                     9.7009E+03                     6.0152E+05                     6.6472E+05                     6.0152E+05                    -3.1223E-02                     7.0077E-02                    -4.1374E-02                     7.0077E-02                    -7.0708E+04                     4.4135E+04                    -1.1986E+05                     4.4135E+04                    -4.2420E-01                     1.2378E+00                     1.5555E-01                     1.2378E+00                    -2.3355E+04                    -6.4849E+06                    -6.5244E+06                    -6.4849E+06                     7.7287E-02                     7.4266E-01                     5.1850E-01                     7.4266E-01                     0.0000E+00                     0.0000E+00                     0.0000E+00                     0.0000E+00                     0.0000E+00                     0.0000E+00                     0.0000E+00                     0.0000E+00                     0.0000E+00                     0.0000E+00                     0.0000E+00                     0.0000E+00                     0.0000E+00                     0.0000E+00                     0.0000E+00                     0.0000E+00                     0.0000E+00                     0.0000E+00                     0.0000E+00                     0.0000E+00                     0.0000E+00                     0.0000E+00                     0.0000E+00                     0.0000E+00
    1.1750                     8.0380E-02                     1.8797E+06                     6.7418E-02                     5.2018E+07                     2.1956E+00                    -2.4212E+07                     5.3089E+00                     6.2380E+03                     6.0710E+05                     6.6353E+05                     6.0710E+05                    -3.1065E-02                     7.0108E-02                    -4.1732E-02                     7.0108E-02                    -7.0751E+04                     4.0978E+04                    -1.2177E+05                     4.0978E+04                    -4.2510E-01                     1.2337E+00                     1.5325E-01                     1.2337E+00                    -6.6667E+03                    -6.5431E+06                    -6.5328E+06                    -6.5431E+06                     7.7244E-02                     7.4318E-01                     5.1672E-01                     7.4318E-01                     6.2380E+03                     6.0710E+05                     6.6353E+05                     6.0710E+05                    -3.1065E-02                     7.0108E-02                    -4.1732E-02                     7.0108E-02                    -7.0751E+04                     4.0978E+04                    -1.2177E+05                     4.0978E+04                    -4.2510E-01                     1.2337E+00                     1.5325E-01                     1.2337E+00                    -6.6667E+03                    -6.5431E+06                    -6.5328E+06                    -6.5431E+06                     7.7244E-02                     7.4318E-01                     5.1672E-01                     7.4318E-01                     0.0000E+00                     0.0000E+00                     0.0000E+00                     0.0000E+00                     0.0000E+00                     0.0000E+00                     0.0000E+00                     0.0000E+00                     0.0000E+00                     0.0000E+00                     0.0000E+00                     0.0000E+00                     0.0000E+00                     0.0000E+00                     0.0000E+00                     0.0000E+00                     0.0000E+00                     0.0000E+00                     0.0000E+00                     0.0000E+00                     0.0000E+00                     0.0000E+00                     0.0000E+00                     0.0000E+00
    1.1875                     8.0113E-02                     1.8863E+06                     6.7278E-02                     5.2010E+07                     2.1842E+00                    -2.4285E+07                     5.3194E+00                     2.7751E+03                     6.1267E+05                     6.6233E+05                     6.1267E+05                    -3.0908E-02                     7.0139E-02                    -4.2091E-02                     7.0139E-02                    -7.0793E+04                     3.7822E+04                    -1.2368E+05                     3.7822E+04                    -4.2601E-01                     1.2296E+00                     1.5096E-01                     1.2296E+00                     1.0022E+04                    -6.6013E+06                    -6.5413E+06                    -6.6013E+06                     7.7201E-02                     7.4371E-01                     5.1495E-01                     7.4371E-01                     2.7751E+03                     6.1267E+05                     6.6233E+05                     6.1267E+05                    -3.0908E-02                     7.0139E-02                    -4.2091E-02                     7.0139E-02                    -7.0793E+04                     3.7822E+04                    -1.2368E+05                     3.7822E+04                    -4.2601E-01                     1.2296E+00                     1.5096E-01                     1.2296E+00                     1.0022E+04                    -6.6013E+06                    -6.5413E+06                    -6.6013E+06                     7.7201E-02                     7.4371E-01                     5.1495E-01                     7.4371E-01                     0.0000E+00                     0.0000E+00                     0.0000E+00                     0.0000E+00                     0.0000E+00                     0.0000E+00                     0.0000E+00                     0.0000E+00                     0.0000E+00                     0.0000E+00                     0.0000E+00                     0.0000E+00                     0.0000E+00                     0.0000E+00                     0.0000E+00                     0.0000E+00                     0.0000E+00                     0.0000E+00                     0.0000E+00                     0.0000E+00                     0.0000E+00                     0.0000E+00                     0.0000E+00                     0.0000E+00
    1.2000                     7.9845E-02                     1.8929E+06                     6.7139E-02                     5.2002E+07                     2.1727E+00                    -2.4357E+07                     5.3298E+00                    -6.8786E+02                     6.1825E+05                     6.6114E+05                     6.1825E+05                    -3.0751E-02                     7.0169E-02                    -4.2449E-02                     7.0169E-02                    -7.0836E+04                     3.4665E+04                    -1.2558E+05                     3.4665E+04                    -4.2691E-01                     1.2255E+00                     1.4866E-01                     1.2255E+00                     2.6711E+04                    -6.6596E+06                    -6.5498E+06                    -6.6596E+06                     7.7159E-02                     7.4424E-01                     5.1317E-01                     7.4424E-01                    -6.8786E+02                     6.1825E+05                     6.6114E+05                     6.1825E+05                    -3.0751E-02                     7.0169E-02                    -4.2449E-02                     7.0169E-02                    -7.0836E+04                     3.4665E+04                    -1.2558E+05                     3.4665E+04                    -4.2691E-01                     1.2255E+00                     1.4866E-01                     1.2255E+00                     2.6711E+04                    -6.6596E+06                    -6.5498E+06                    -6.6596E+06                     7.7159E-02                     7.4424E-01                     5.1317E-01                     7.4424E-01                     0.0000E+00                     0.0000E+00                     0.0000E+00                     0.0000E+00                     0.0000E+00                     0.0000E+00                     0.0000E+00                     0.0000E+00                     0.0000E+00                     0.0000E+00                     0.0000E+00                     0.0000E+00                     0.0000E+00                     0.0000E+00                     0.0000E+00                     0.0000E+00                     0.0000E+00                     0.0000E+00                     0.0000E+00                     0.0000E+00                     0.0000E+00                     0.0000E+00                     0.0000E+00                     0.0000E+00
    1.2125                     7.7917E-02                     1.8947E+06                     6.6981E-02                     5.1994E+07                     2.1615E+00                    -2.4375E+07                     5.3338E+00                    -4.2226E+03                     6.2235E+05                     6.5815E+05                     6.2235E+05                    -3.0598E-02                     7.0131E-02                    -4.2682E-02                     7.0131E-02                    -7.0860E+04                     3.1657E+04                    -1.2725E+05                     3.1657E+04                    -4.2750E-01                     1.2213E+00                     1.4647E-01                     1.2213E+00                     4.3223E+04                    -6.6989E+06                    -6.5432E+06                    -6.6989E+06                     7.7024E-02                     7.4443E-01                     5.1132E-01                     7.4443E-01                    -4.2226E+03                     6.2235E+05                     6.5815E+05                     6.2235E+05                    -3.0598E-02                     7.0131E-02                    -4.2682E-02                     7.0131E-02                    -7.0860E+04                     3.1657E+04                    -1.2725E+05                     3.1657E+04                    -4.2750E-01                     1.2213E+00                     1.4647E-01                     1.2213E+00                     4.3223E+04                    -6.6989E+06                    -6.5432E+06                    -6.6989E+06                     7.7024E-02                     7.4443E-01                     5.1132E-01                     7.4443E-01                     0.0000E+00                     0.0000E+00                     0.0000E+00                     0.0000E+00                     0.0000E+00                     0.0000E+00                     0.0000E+00                     0.0000E+00                     0.0000E+00                     0.0000E+00                     0.0000E+00                     0.0000E+00                     0.0000E+00                     0.0000E+00                     0.0000E+00                     0.0000E+00                     0.0000E+00                     0.0000E+00                     0.0000E+00                     0.0000E+00                     0.0000E+00                     0.0000E+00                     0.0000E+00                     0.0000E+00
    1.2250                     7.5990E-02                     1.8965E+06                     6.6823E-02                     5.1986E+07                     2.1503E+00                    -2.4392E+07                     5.3378E+00                    -7.7574E+03                     6.2645E+05                     6.5517E+05                     6.2645E+05                    -3.0445E-02                     7.0092E-02                    -4.2915E-02                     7.0092E-02                    -7.0883E+04                     2.8650E+04                    -1.2891E+05                     2.8650E+04                    -4.2808E-01                     1.2171E+00                     1.4428E-01                     1.2171E+00                     5.9735E+04                    -6.7383E+06                    -6.5366E+06                    -6.7383E+06                     7.6890E-02                     7.4461E-01                     5.0947E-01                     7.4461E-01                    -7.7574E+03                     6.2645E+05                     6.5517E+05                     6.2645E+05                    -3.0445E-02                     7.0092E-02                    -4.2915E-02                     7.0092E-02                    -7.0883E+04                     2.8650E+04                    -1.2891E+05                     2.8650E+04                    -4.2808E-01                     1.2171E+00                     1.4428E-01                     1.2171E+00                     5.9735E+04                    -6.7383E+06                    -6.5366E+06                    -6.7383E+06                     7.6890E-02                     7.4461E-01                     5.0947E-01                     7.4461E-01                     0.0000E+00                     0.0000E+00                     0.0000E+00                     0.0000E+00                     0.0000E+00                     0.0000E+00                     0.0000E+00                     0.0000E+00                     0.0000E+00                     0.0000E+00                     0.0000E+00                     0.0000E+00                     0.0000E+00                     0.0000E+00                     0.0000E+00                     0.0000E+00                     0.0000E+00                     0.0000E+00                     0.0000E+00                     0.0000E+00                     0.0000E+00                     0.0000E+00                     0.0000E+00                     0.0000E+00
    1.2375                     7.4062E-02                     1.8983E+06                     6.6665E-02                     5.1979E+07                     2.1391E+00                    -2.4410E+07                     5.3418E+00                    -1.1292E+04                     6.3055E+05                     6.5218E+05                     6.3055E+05                    -3.0292E-02                     7.0053E-02                    -4.3148E-02                     7.0053E-02                    -7.0907E+04                     2.5643E+04                    -1.3057E+05                     2.5643E+04                    -4.2866E-01                     1.2128E+00                     1.4209E-01                     1.2128E+00                     7.6247E+04                    -6.7777E+06                    -6.5301E+06                    -6.7777E+06                     7.6756E-02                     7.4480E-01                     5.0762E-01                     7.4480E-01                    -1.1292E+04                     6.3055E+05                     6.5218E+05                     6.3055E+05                    -3.0292E-02                     7.0053E-02                    -4.3148E-02                     7.0053E-02                    -7.0907E+04                     2.5643E+04                    -1.3057E+05                     2.5643E+04                    -4.2866E-01                     1.2128E+00                     1.4209E-01                     1.2128E+00                     7.6247E+04                    -6.7777E+06                    -6.5301E+06                    -6.7777E+06                     7.6756E-02                     7.4480E-01                     5.0762E-01                     7.4480E-01                     0.0000E+00                     0.0000E+00                     0.0000E+00                     0.0000E+00                     0.0000E+00                     0.0000E+00                     0.0000E+00                     0.0000E+00                     0.0000E+00                     0.0000E+00                     0.0000E+00                     0.0000E+00                     0.0000E+00                     0.0000E+00                     0.0000E+00                     0.0000E+00                     0.0000E+00                     0.0000E+00                     0.0000E+00                     0.0000E+00                     0.0000E+00                     0.0000E+00                     0.0000E+00                     0.0000E+00
