
 **************************************************************************************************
 OpenFAST

 Copyright (C) 2022 National Renewable Energy Laboratory
 Copyright (C) 2022 Envision Energy USA LTD

 This program is licensed under Apache License Version 2.0 and comes with ABSOLUTELY NO WARRANTY.
 See the "LICENSE" file distributed with this software for details.
 **************************************************************************************************

 OpenFAST-v3.2.0-33-g3aa7f39b
 Compile Info:
  - Compiler: GCC version 11.3.0
  - Architecture: 64 bit
  - Precision: double
  - OpenMP: No
  - Date: Jul 29 2022
  - Time: 13:27:54
 Execution Info:
  - Date: 07/29/2022
  - Time: 13:41:18-0500

 OpenFAST input file heading:
     Free-free beam test case

 Running ElastoDyn.
 Nodal outputs section of ElastoDyn input file not found or improperly formatted.
 Running BeamDyn.
 Nodal outputs section of BeamDyn input file not found or improperly formatted.
  Time: 0 of 1.50000E-03 seconds.
                                                                                                   Performing linearization 1 at simulation time 0 s. (RotSpeed=0 rpm, BldPitch1=0 deg)             
                                                                                                  
  Total Real Time:       0.451 seconds
  Total CPU Time:        0.47832 seconds
  Simulation CPU Time:   0.33618 seconds
  Simulated Time:        1.50000E-03 seconds
  Time Ratio (Sim/CPU):  4.46191E-03

  OpenFAST terminated normally.

