
 **************************************************************************************************
 OpenFAST

 Copyright (C) 2020 National Renewable Energy Laboratory
 Copyright (C) 2020 Envision Energy USA LTD

 This program is licensed under Apache License Version 2.0 and comes with ABSOLUTELY NO WARRANTY.
 See the "LICENSE" file distributed with this software for details.
 **************************************************************************************************

 OpenFAST-v2.4.0-53-g8bfd804f
 Compile Info:
  - Compiler: GCC version 7.5.0
  - Architecture: 64 bit
  - Precision: double
  - Date: Nov  6 2020
  - Time: 18:38:52
 Execution Info:
  - Date: 11/06/2020
  - Time: 22:00:44+0000

 OpenFAST input file heading:
     FAST Certification Test #20: NREL 5.0 MW Baseline Wind Turbine with OC3 Tripod Configuration,
     for use in offshore analysis

 Running ElastoDyn.
 Nodal outputs section of ElastoDyn input file not found or improperly formatted.
 Running AeroDyn.
 Nodal output section of AeroDyn input file not found or improperly formatted.
 Warning: Turning off Unsteady Aerodynamics because C_nalpha is 0. (node 1, blade 1)
 Warning: Turning off Unsteady Aerodynamics because C_nalpha is 0. (node 2, blade 1)
 Warning: Turning off Unsteady Aerodynamics because C_nalpha is 0. (node 3, blade 1)
 Warning: Turning off Unsteady Aerodynamics because C_nalpha is 0. (node 4, blade 1)
 Warning: Turning off Unsteady Aerodynamics because C_nalpha is 0. (node 1, blade 2)
 Warning: Turning off Unsteady Aerodynamics because C_nalpha is 0. (node 2, blade 2)
 Warning: Turning off Unsteady Aerodynamics because C_nalpha is 0. (node 3, blade 2)
 Warning: Turning off Unsteady Aerodynamics because C_nalpha is 0. (node 4, blade 2)
 Warning: Turning off Unsteady Aerodynamics because C_nalpha is 0. (node 1, blade 3)
 Warning: Turning off Unsteady Aerodynamics because C_nalpha is 0. (node 2, blade 3)
 Warning: Turning off Unsteady Aerodynamics because C_nalpha is 0. (node 3, blade 3)
 Warning: Turning off Unsteady Aerodynamics because C_nalpha is 0. (node 4, blade 3)
 Running InflowWind.
 Running ServoDyn.
 Running ServoDyn Interface for Bladed Controllers (using GNU Fortran for Linux, ).
 Using legacy Bladed DLL interface.
 Running HydroDyn.
  WARNING:   The random number generator in use differs from the original code provided by NREL.
  This pRNG uses 33 seeds instead of the 2 in the input file.
  Generating incident wave kinematics and current time history.
 Running SubDyn.
    Calculating Internal Modal Eigenvectors

 FAST_InitializeAll:HydroDyn_Init:Waves_Init:VariousWaves_Init: The random number generator in use
 differs from the original code provided by NREL. This pRNG uses 33 seeds instead of the 2 in the
 HydroDyn input file.

  Time: 0 of 60 seconds.

 FAST_Solution0:CalcOutputs_And_SolveForInputs:SolveOption2:SrvD_CalcOutput:DLL_controller_call:Run
 ning with torque and pitch control of the NREL offshore 5MW baseline wind turbine from DISCON.dll
 as written by J. Jonkman of NREL/NWTC for use in the IEA Annex XXIII OC3 studies.


 FAST_Solution:FAST_AdvanceStates:SrvD_UpdateStates:DLL_controller_call:BladedInterface option was
 designed for an explicit-loose coupling scheme. Using last calculated values from DLL on all
 subsequent calls until time is advanced. Warning will not be displayed again.

                                                                                                   Time: 1 of 60 seconds.  Estimated final completion at 22:56:50.                                                                                                                                     Time: 2 of 60 seconds.  Estimated final completion at 22:18:60.                                                                                                                                     Time: 3 of 60 seconds.  Estimated final completion at 22:18:05.                                                                                                                                     Time: 4 of 60 seconds.  Estimated final completion at 22:17:54.                                                                                                                                     Time: 5 of 60 seconds.  Estimated final completion at 22:18:18.                                                                                                                                     Time: 6 of 60 seconds.  Estimated final completion at 22:18:15.                                                                                                                                     Time: 7 of 60 seconds.  Estimated final completion at 22:18:33.                                                                                                                                     Time: 8 of 60 seconds.  Estimated final completion at 22:18:17.                                                                                                                                     Time: 9 of 60 seconds.  Estimated final completion at 22:18:31.                                                                                                                                     Time: 10 of 60 seconds.  Estimated final completion at 22:18:31.                                                                                                                                    Time: 11 of 60 seconds.  Estimated final completion at 22:18:24.                                                                                                                                    Time: 12 of 60 seconds.  Estimated final completion at 22:18:34.                                                                                                                                    Time: 13 of 60 seconds.  Estimated final completion at 22:19:07.                                                                                                                                    Time: 14 of 60 seconds.  Estimated final completion at 22:18:29.                                                                                                                                    Time: 15 of 60 seconds.  Estimated final completion at 22:18:03.                                                                                                                                    Time: 16 of 60 seconds.  Estimated final completion at 22:18:26.                                                                                                                                    Time: 17 of 60 seconds.  Estimated final completion at 22:18:20.                                                                                                                                    Time: 18 of 60 seconds.  Estimated final completion at 22:22:15.                                                                                                                                    Time: 19 of 60 seconds.  Estimated final completion at 22:18:59.                                                                                                                                    Time: 20 of 60 seconds.  Estimated final completion at 22:18:55.                                                                                                                                    Time: 21 of 60 seconds.  Estimated final completion at 22:18:40.                                                                                                                                    Time: 22 of 60 seconds.  Estimated final completion at 22:18:24.                                                                                                                                    Time: 23 of 60 seconds.  Estimated final completion at 22:19:18.                                                                                                                                    Time: 24 of 60 seconds.  Estimated final completion at 22:18:47.                                                                                                                                    Time: 25 of 60 seconds.  Estimated final completion at 22:18:18.                                                                                                                                    Time: 26 of 60 seconds.  Estimated final completion at 22:18:14.                                                                                                                                    Time: 27 of 60 seconds.  Estimated final completion at 22:18:26.                                                                                                                                    Time: 28 of 60 seconds.  Estimated final completion at 22:18:41.                                                                                                                                    Time: 29 of 60 seconds.  Estimated final completion at 22:19:08.                                                                                                                                    Time: 30 of 60 seconds.  Estimated final completion at 22:18:28.                                                                                                                                    Time: 31 of 60 seconds.  Estimated final completion at 22:18:28.                                                                                                                                    Time: 32 of 60 seconds.  Estimated final completion at 22:18:41.                                                                                                                                    Time: 33 of 60 seconds.  Estimated final completion at 22:18:20.                                                                                                                                    Time: 34 of 60 seconds.  Estimated final completion at 22:18:37.                                                                                                                                    Time: 35 of 60 seconds.  Estimated final completion at 22:18:46.                                                                                                                                    Time: 36 of 60 seconds.  Estimated final completion at 22:19:29.                                                                                                                                    Time: 37 of 60 seconds.  Estimated final completion at 22:19:11.                                                                                                                                    Time: 38 of 60 seconds.  Estimated final completion at 22:18:50.                                                                                                                                    Time: 39 of 60 seconds.  Estimated final completion at 22:19:31.                                                                                                                                    Time: 40 of 60 seconds.  Estimated final completion at 22:19:17.                                                                                                                                    Time: 41 of 60 seconds.  Estimated final completion at 22:21:56.                                                                                                                                    Time: 42 of 60 seconds.  Estimated final completion at 22:24:02.                                                                                                                                    Time: 43 of 60 seconds.  Estimated final completion at 22:20:04.                                                                                                                                    Time: 44 of 60 seconds.  Estimated final completion at 22:19:24.                                                                                                                                    Time: 45 of 60 seconds.  Estimated final completion at 22:19:15.                                                                                                                                    Time: 46 of 60 seconds.  Estimated final completion at 22:19:31.                                                                                                                                    Time: 47 of 60 seconds.  Estimated final completion at 22:19:44.                                                                                                                                    Time: 48 of 60 seconds.  Estimated final completion at 22:19:34.                                                                                                                                    Time: 49 of 60 seconds.  Estimated final completion at 22:19:30.                                                                                                                                    Time: 50 of 60 seconds.  Estimated final completion at 22:19:26.                                                                                                                                    Time: 51 of 60 seconds.  Estimated final completion at 22:19:25.                                                                                                                                    Time: 52 of 60 seconds.  Estimated final completion at 22:19:27.                                                                                                                                    Time: 53 of 60 seconds.  Estimated final completion at 22:19:33.                                                                                                                                    Time: 54 of 60 seconds.  Estimated final completion at 22:19:30.                                                                                                                                    Time: 55 of 60 seconds.  Estimated final completion at 22:19:37.                                                                                                                                    Time: 56 of 60 seconds.  Estimated final completion at 22:19:36.                                                                                                                                    Time: 57 of 60 seconds.  Estimated final completion at 22:19:34.                                                                                                                                    Time: 58 of 60 seconds.  Estimated final completion at 22:19:35.                                                                                                                                    Time: 59 of 60 seconds.  Estimated final completion at 22:19:34.                                                                                                                                    Time: 60 of 60 seconds.  Estimated final completion at 22:19:38.                                                                                                                                   
  Total Real Time:       18.957 minutes
  Total CPU Time:        18.909 minutes
  Simulation CPU Time:   18.355 minutes
  Simulated Time:        1.0001 minutes
  Time Ratio (Sim/CPU):  5.44871E-02

  OpenFAST terminated normally.

