
 **************************************************************************************************
 OpenFAST

 Copyright (C) 2021 National Renewable Energy Laboratory
 Copyright (C) 2021 Envision Energy USA LTD

 This program is licensed under Apache License Version 2.0 and comes with ABSOLUTELY NO WARRANTY.
 See the "LICENSE" file distributed with this software for details.
 **************************************************************************************************

 OpenFAST-v2.5.0-10-gb4fd3acc
 Compile Info:
  - Compiler: GCC version 10.2.0
  - Architecture: 64 bit
  - Precision: double
  - Date: Jan 14 2021
  - Time: 17:19:34
 Execution Info:
  - Date: 01/14/2021
  - Time: 17:39:51-0600

 OpenFAST input file heading:
     FAST Certification Test #20: NREL 5.0 MW Baseline Wind Turbine with OC3 Tripod Configuration,
     for use in offshore analysis

 Running ElastoDyn.
 Nodal outputs section of ElastoDyn input file not found or improperly formatted.
 Running AeroDyn.
 Nodal output section of AeroDyn input file not found or improperly formatted.
 Warning: Turning off Unsteady Aerodynamics because C_nalpha is 0. (node 1, blade 1)
 Warning: Turning off Unsteady Aerodynamics because C_nalpha is 0. (node 2, blade 1)
 Warning: Turning off Unsteady Aerodynamics because C_nalpha is 0. (node 3, blade 1)
 Warning: Turning off Unsteady Aerodynamics because C_nalpha is 0. (node 4, blade 1)
 Warning: Turning off Unsteady Aerodynamics because C_nalpha is 0. (node 1, blade 2)
 Warning: Turning off Unsteady Aerodynamics because C_nalpha is 0. (node 2, blade 2)
 Warning: Turning off Unsteady Aerodynamics because C_nalpha is 0. (node 3, blade 2)
 Warning: Turning off Unsteady Aerodynamics because C_nalpha is 0. (node 4, blade 2)
 Warning: Turning off Unsteady Aerodynamics because C_nalpha is 0. (node 1, blade 3)
 Warning: Turning off Unsteady Aerodynamics because C_nalpha is 0. (node 2, blade 3)
 Warning: Turning off Unsteady Aerodynamics because C_nalpha is 0. (node 3, blade 3)
 Warning: Turning off Unsteady Aerodynamics because C_nalpha is 0. (node 4, blade 3)
 Running InflowWind.
 Running ServoDyn.
 Running ServoDyn Interface for Bladed Controllers (using GNU Fortran for Linux, ).
 Using legacy Bladed DLL interface.
 Running HydroDyn.
  WARNING:   The random number generator in use differs from the original code provided by NREL.
  This pRNG uses 8 seeds instead of the 2 in the input file.
  Generating incident wave kinematics and current time history.
 Running SubDyn.
    Calculating Internal Modal Eigenvectors

 FAST_InitializeAll:HydroDyn_Init:Waves_Init:VariousWaves_Init: The random number generator in use
 differs from the original code provided by NREL. This pRNG uses 8 seeds instead of the 2 in the
 HydroDyn input file.

  Time: 0 of 60 seconds.

 FAST_Solution0:CalcOutputs_And_SolveForInputs:SolveOption2:SrvD_CalcOutput:DLL_controller_call:Run
 ning with torque and pitch control of the NREL offshore 5MW baseline wind turbine from DISCON.dll
 as written by J. Jonkman of NREL/NWTC for use in the IEA Annex XXIII OC3 studies.


 FAST_Solution:FAST_AdvanceStates:SrvD_UpdateStates:DLL_controller_call:BladedInterface option was
 designed for an explicit-loose coupling scheme. Using last calculated values from DLL on all
 subsequent calls until time is advanced. Warning will not be displayed again.

                                                                                                   Time: 1 of 60 seconds.  Estimated final completion at 19:12:41.                                                                                                                                     Time: 2 of 60 seconds.  Estimated final completion at 18:01:23.                                                                                                                                     Time: 3 of 60 seconds.  Estimated final completion at 18:02:08.                                                                                                                                     Time: 4 of 60 seconds.  Estimated final completion at 18:02:03.                                                                                                                                     Time: 5 of 60 seconds.  Estimated final completion at 18:01:52.                                                                                                                                     Time: 6 of 60 seconds.  Estimated final completion at 18:01:29.                                                                                                                                     Time: 7 of 60 seconds.  Estimated final completion at 18:01:40.                                                                                                                                     Time: 8 of 60 seconds.  Estimated final completion at 18:01:51.                                                                                                                                     Time: 9 of 60 seconds.  Estimated final completion at 18:02:14.                                                                                                                                     Time: 10 of 60 seconds.  Estimated final completion at 18:02:04.                                                                                                                                    Time: 11 of 60 seconds.  Estimated final completion at 18:02:12.                                                                                                                                    Time: 12 of 60 seconds.  Estimated final completion at 18:02:12.                                                                                                                                    Time: 13 of 60 seconds.  Estimated final completion at 18:02:41.                                                                                                                                    Time: 14 of 60 seconds.  Estimated final completion at 18:02:41.                                                                                                                                    Time: 15 of 60 seconds.  Estimated final completion at 18:02:34.                                                                                                                                    Time: 16 of 60 seconds.  Estimated final completion at 18:00:53.                                                                                                                                    Time: 17 of 60 seconds.  Estimated final completion at 17:59:50.                                                                                                                                    Time: 18 of 60 seconds.  Estimated final completion at 17:58:49.                                                                                                                                    Time: 19 of 60 seconds.  Estimated final completion at 17:58:60.                                                                                                                                    Time: 20 of 60 seconds.  Estimated final completion at 17:57:49.                                                                                                                                    Time: 21 of 60 seconds.  Estimated final completion at 17:56:37.                                                                                                                                    Time: 22 of 60 seconds.  Estimated final completion at 17:56:36.                                                                                                                                    Time: 23 of 60 seconds.  Estimated final completion at 17:56:28.                                                                                                                                    Time: 24 of 60 seconds.  Estimated final completion at 17:56:36.                                                                                                                                    Time: 25 of 60 seconds.  Estimated final completion at 17:56:44.                                                                                                                                    Time: 26 of 60 seconds.  Estimated final completion at 17:56:54.                                                                                                                                    Time: 27 of 60 seconds.  Estimated final completion at 17:56:49.                                                                                                                                    Time: 28 of 60 seconds.  Estimated final completion at 17:56:51.                                                                                                                                    Time: 29 of 60 seconds.  Estimated final completion at 17:56:45.                                                                                                                                    Time: 30 of 60 seconds.  Estimated final completion at 17:56:48.                                                                                                                                    Time: 31 of 60 seconds.  Estimated final completion at 17:56:56.                                                                                                                                    Time: 32 of 60 seconds.  Estimated final completion at 17:56:55.                                                                                                                                    Time: 33 of 60 seconds.  Estimated final completion at 17:56:56.                                                                                                                                    Time: 34 of 60 seconds.  Estimated final completion at 17:56:55.                                                                                                                                    Time: 35 of 60 seconds.  Estimated final completion at 17:56:58.                                                                                                                                    Time: 36 of 60 seconds.  Estimated final completion at 17:56:53.                                                                                                                                    Time: 37 of 60 seconds.  Estimated final completion at 17:56:55.                                                                                                                                    Time: 38 of 60 seconds.  Estimated final completion at 17:56:58.                                                                                                                                    Time: 39 of 60 seconds.  Estimated final completion at 17:56:57.                                                                                                                                    Time: 40 of 60 seconds.  Estimated final completion at 17:56:55.                                                                                                                                    Time: 41 of 60 seconds.  Estimated final completion at 17:57:06.                                                                                                                                    Time: 42 of 60 seconds.  Estimated final completion at 17:57:01.                                                                                                                                    Time: 43 of 60 seconds.  Estimated final completion at 17:56:59.                                                                                                                                    Time: 44 of 60 seconds.  Estimated final completion at 17:57:00.                                                                                                                                    Time: 45 of 60 seconds.  Estimated final completion at 17:56:58.                                                                                                                                    Time: 46 of 60 seconds.  Estimated final completion at 17:56:58.                                                                                                                                    Time: 47 of 60 seconds.  Estimated final completion at 17:56:58.                                                                                                                                    Time: 48 of 60 seconds.  Estimated final completion at 17:56:57.                                                                                                                                    Time: 49 of 60 seconds.  Estimated final completion at 17:56:58.                                                                                                                                    Time: 50 of 60 seconds.  Estimated final completion at 17:56:59.                                                                                                                                    Time: 51 of 60 seconds.  Estimated final completion at 17:56:59.                                                                                                                                    Time: 52 of 60 seconds.  Estimated final completion at 17:56:58.                                                                                                                                    Time: 53 of 60 seconds.  Estimated final completion at 17:56:57.                                                                                                                                    Time: 54 of 60 seconds.  Estimated final completion at 17:56:60.                                                                                                                                    Time: 55 of 60 seconds.  Estimated final completion at 17:56:60.                                                                                                                                    Time: 56 of 60 seconds.  Estimated final completion at 17:56:59.                                                                                                                                    Time: 57 of 60 seconds.  Estimated final completion at 17:56:58.                                                                                                                                    Time: 58 of 60 seconds.  Estimated final completion at 17:56:58.                                                                                                                                    Time: 59 of 60 seconds.  Estimated final completion at 17:56:58.                                                                                                                                    Time: 60 of 60 seconds.  Estimated final completion at 17:56:58.                                                                                                                                   
  Total Real Time:       17.11 minutes
  Total CPU Time:        17.062 minutes
  Simulation CPU Time:   16.354 minutes
  Simulated Time:        1.0001 minutes
  Time Ratio (Sim/CPU):  6.11566E-02

  OpenFAST terminated normally.

