
 **************************************************************************************************
 OpenFAST

 Copyright (C) 2024 National Renewable Energy Laboratory
 Copyright (C) 2024 Envision Energy USA LTD

 This program is licensed under Apache License Version 2.0 and comes with ABSOLUTELY NO WARRANTY.
 See the "LICENSE" file distributed with this software for details.
 **************************************************************************************************

 OpenFAST--128-NOTFOUND
 Compile Info:
  - Compiler: GCC version 12.3.0
  - Architecture: 64 bit
  - Precision: double
  - OpenMP: Yes, number of threads: 4/4
  - Date: May  2 2024
  - Time: 21:38:56
 Execution Info:
  - Date: 05/02/2024
  - Time: 21:57:39+0000

 OpenFAST input file heading:
     FAST Certification Test #12: WindPACT 1.5 MW Baseline with many DOFs with VS and VP and ECD
     wind.

  Running ElastoDyn.
  Running InflowWind.
  Running AeroDyn.
 Warning: Turning off Unsteady Aerodynamics because polar has constant data. (node 1, blade 1)
 Warning: Turning off Unsteady Aerodynamics because polar has constant data. (node 2, blade 1)
 Warning: Turning off Unsteady Aerodynamics because polar has constant data. (node 1, blade 2)
 Warning: Turning off Unsteady Aerodynamics because polar has constant data. (node 2, blade 2)
 Warning: Turning off Unsteady Aerodynamics because polar has constant data. (node 1, blade 3)
 Warning: Turning off Unsteady Aerodynamics because polar has constant data. (node 2, blade 3)
  Running ServoDyn.

 FAST_InitializeAll:InflowWind_Init:IfW_UniformWind_Init: Could not read upflow column in uniform
 wind files. Assuming upflow is 0.

  Time: 0 of 20 seconds.
                                                                                                   Time: 1 of 20 seconds.  Estimated final completion at 21:57:49.                                                                                                                                     Time: 2 of 20 seconds.  Estimated final completion at 21:57:48.                                                                                                                                     Time: 3 of 20 seconds.  Estimated final completion at 21:57:48.                                                                                                                                     Time: 4 of 20 seconds.  Estimated final completion at 21:57:48.                                  
 ***********************************************
 Running with control option using data from:
  Speed controller for ADAMS WindPACT 15A1001 model April, 2002.
 ***********************************************

                                                                                                   Time: 5 of 20 seconds.  Estimated final completion at 21:57:49.                                                                                                                                     Time: 6 of 20 seconds.  Estimated final completion at 21:57:49.                                                                                                                                     Time: 7 of 20 seconds.  Estimated final completion at 21:57:48.                                                                                                                                     Time: 8 of 20 seconds.  Estimated final completion at 21:57:48.                                                                                                                                     Time: 9 of 20 seconds.  Estimated final completion at 21:57:49.                                  
 FAST_Solution:FAST_UpdateStates:CalcOutputs_And_SolveForInputs:SolveOption2:AD_CalcOutput:RotCalcO
 utput:BEMT_CalcOutput(node 3, blade 3):UA_CalcOutput:UA_BlendSteady:Temporarily turning off UA
 due to high angle of attack or low relative velocity. This warning will not be repeated though
 the condition may persist.

                                                                                                   Time: 10 of 20 seconds.  Estimated final completion at 21:57:50.                                                                                                                                    Time: 11 of 20 seconds.  Estimated final completion at 21:57:49.                                                                                                                                    Time: 12 of 20 seconds.  Estimated final completion at 21:57:49.                                                                                                                                    Time: 13 of 20 seconds.  Estimated final completion at 21:57:49.                                                                                                                                    Time: 14 of 20 seconds.  Estimated final completion at 21:57:49.                                                                                                                                    Time: 15 of 20 seconds.  Estimated final completion at 21:57:49.                                                                                                                                    Time: 16 of 20 seconds.  Estimated final completion at 21:57:49.                                                                                                                                    Time: 17 of 20 seconds.  Estimated final completion at 21:57:49.                                                                                                                                    Time: 18 of 20 seconds.  Estimated final completion at 21:57:49.                                                                                                                                    Time: 19 of 20 seconds.  Estimated final completion at 21:57:49.                                                                                                                                    Time: 20 of 20 seconds.  Estimated final completion at 21:57:49.                                                                                                                                   
  Total Real Time:       8.992 seconds
  Total CPU Time:        8.892 seconds
  Simulation CPU Time:   8.7504 seconds
  Simulated Time:        20 seconds
  Time Ratio (Sim/CPU):  2.2856

  OpenFAST terminated normally.

