
**************************************************************************************************
OpenFAST

Copyright (C) 2021 National Renewable Energy Laboratory
Copyright (C) 2021 Envision Energy USA LTD

This program is licensed under Apache License Version 2.0 and comes with ABSOLUTELY NO WARRANTY.
See the "LICENSE" file distributed with this software for details.
**************************************************************************************************

OpenFAST-v2.4.0-137-gb5d9a13c
Compile Info:
 - Compiler: Intel(R) Fortran Intel(R) 64 Compiler Classic for applications running on Intel(R)
 64, Version 2021.1 Build 20201112_000000
 - Architecture: 64 bit
 - Precision: double
 - Date: Jan 11 2021
 - Time: 20:21:29
Execution Info:
 - Date: 01/11/2021
 - Time: 20:49:12-0600

OpenFAST input file heading:
    FAST Certification Test #11: WindPACT 1.5 MW Baseline with many DOFs undergoing a pitch
    failure.

Running ElastoDyn.
Nodal outputs section of ElastoDyn input file not found or improperly formatted.
Running AeroDyn14.
Running InflowWind.

   Reading a 7x7 grid (84 m wide, 42.288 m to 126.29 m above ground) with a characteristic wind
   speed of 12 m/s.

   Processed 940 time steps of 20-Hz full-field data (46.95 seconds).
Running ServoDyn.
 Time: 0 of 20 seconds.                                                                                                   Time: 1 of 20 seconds.  Estimated final completion at 20:49:24.                                                                                                   Time: 2 of 20 seconds.  Estimated final completion at 20:49:24.                                                                                                   Time: 3 of 20 seconds.  Estimated final completion at 20:49:24.                                                                                                   Time: 4 of 20 seconds.  Estimated final completion at 20:49:24.

***********************************************
Running with control option using data from:
 Speed controller for ADAMS WindPACT 15A1001 model April, 2002.
***********************************************
                                                                                                   Time: 5 of 20 seconds.  Estimated final completion at 20:49:25.                                                                                                   Time: 6 of 20 seconds.  Estimated final completion at 20:49:25.                                                                                                   Time: 7 of 20 seconds.  Estimated final completion at 20:49:24.                                                                                                   Time: 8 of 20 seconds.  Estimated final completion at 20:49:24.                                                                                                   Time: 9 of 20 seconds.  Estimated final completion at 20:49:25.                                                                                                   Time: 10 of 20 seconds.  Estimated final completion at 20:49:24.                                                                                                   Time: 11 of 20 seconds.  Estimated final completion at 20:49:24.                                                                                                   Time: 12 of 20 seconds.  Estimated final completion at 20:49:25.                                                                                                   Time: 13 of 20 seconds.  Estimated final completion at 20:49:25.                                                                                                   Time: 14 of 20 seconds.  Estimated final completion at 20:49:25.                                                                                                   Time: 15 of 20 seconds.  Estimated final completion at 20:49:25.                                                                                                   Time: 16 of 20 seconds.  Estimated final completion at 20:49:24.                                                                                                   Time: 17 of 20 seconds.  Estimated final completion at 20:49:25.                                                                                                   Time: 18 of 20 seconds.  Estimated final completion at 20:49:25.                                                                                                   Time: 19 of 20 seconds.  Estimated final completion at 20:49:25.                                                                                                   Time: 20 of 20 seconds.  Estimated final completion at 20:49:25.                                                                                                  

 Total Real Time:       11.926 seconds
 Total CPU Time:        11.828 seconds
 Simulation CPU Time:   11.75 seconds
 Simulated Time:        20 seconds
 Time Ratio (Sim/CPU):  1.7021

 OpenFAST terminated normally.

