
**************************************************************************************************
OpenFAST

Copyright (C) 2021 National Renewable Energy Laboratory
Copyright (C) 2021 Envision Energy USA LTD

This program is licensed under Apache License Version 2.0 and comes with ABSOLUTELY NO WARRANTY.
See the "LICENSE" file distributed with this software for details.
**************************************************************************************************

OpenFAST-v2.4.0-137-gb5d9a13c
Compile Info:
 - Compiler: Intel(R) Fortran Intel(R) 64 Compiler Classic for applications running on Intel(R)
 64, Version 2021.1 Build 20201112_000000
 - Architecture: 64 bit
 - Precision: double
 - Date: Jan 11 2021
 - Time: 20:21:29
Execution Info:
 - Date: 01/11/2021
 - Time: 20:49:07-0600

OpenFAST input file heading:
    FAST Certification Test #10: UAE Phase VI (upwind) with no DOFs in a ramped wind.

Running ElastoDyn.
Nodal outputs section of ElastoDyn input file not found or improperly formatted.
Running AeroDyn.
Nodal output section of AeroDyn input file not found or improperly formatted.
Running InflowWind.
Running ServoDyn.

FAST_InitializeAll: IfW_Init:IfW_UniformWind_Init: Could not read upflow column in uniform wind
files. Assuming upflow is 0.

 Time: 0 of 25 seconds.                                                                                                   Time: 1 of 25 seconds.  Estimated final completion at 20:49:42.                                                                                                   Time: 2 of 25 seconds.  Estimated final completion at 20:49:39.                                                                                                   Time: 3 of 25 seconds.  Estimated final completion at 20:49:40.                                                                                                   Time: 4 of 25 seconds.  Estimated final completion at 20:49:40.                                                                                                   Time: 5 of 25 seconds.  Estimated final completion at 20:49:40.                                                                                                   Time: 6 of 25 seconds.  Estimated final completion at 20:49:38.                                                                                                   Time: 7 of 25 seconds.  Estimated final completion at 20:49:41.                                                                                                   Time: 8 of 25 seconds.  Estimated final completion at 20:49:41.                                                                                                   Time: 9 of 25 seconds.  Estimated final completion at 20:49:41.                                                                                                   Time: 10 of 25 seconds.  Estimated final completion at 20:49:41.                                                                                                   Time: 11 of 25 seconds.  Estimated final completion at 20:49:41.                                                                                                   Time: 12 of 25 seconds.  Estimated final completion at 20:49:41.                                                                                                   Time: 13 of 25 seconds.  Estimated final completion at 20:49:40.                                                                                                   Time: 14 of 25 seconds.  Estimated final completion at 20:49:41.                                                                                                   Time: 15 of 25 seconds.  Estimated final completion at 20:49:40.                                                                                                   Time: 16 of 25 seconds.  Estimated final completion at 20:49:39.                                                                                                   Time: 17 of 25 seconds.  Estimated final completion at 20:49:39.                                                                                                   Time: 18 of 25 seconds.  Estimated final completion at 20:49:39.
The BEM solution is being turned off due to low TSR.  (TSR = 1.9996). This warning will not be
repeated though the condition may persist. (See GeomPhi output channel.)                                                                                                   Time: 19 of 25 seconds.  Estimated final completion at 20:49:40.                                                                                                   Time: 20 of 25 seconds.  Estimated final completion at 20:49:40.                                                                                                   Time: 21 of 25 seconds.  Estimated final completion at 20:49:40.                                                                                                   Time: 22 of 25 seconds.  Estimated final completion at 20:49:40.                                                                                                   Time: 23 of 25 seconds.  Estimated final completion at 20:49:39.                                                                                                   Time: 24 of 25 seconds.  Estimated final completion at 20:49:40.                                                                                                   Time: 25 of 25 seconds.  Estimated final completion at 20:49:40.                                                                                                  

 Total Real Time:       32.541 seconds
 Total CPU Time:        32.266 seconds
 Simulation CPU Time:   32.188 seconds
 Simulated Time:        25 seconds
 Time Ratio (Sim/CPU):  0.7767

 OpenFAST terminated normally.

