
**************************************************************************************************
OpenFAST

Copyright (C) 2020 National Renewable Energy Laboratory
Copyright (C) 2020 Envision Energy USA LTD

This program is licensed under Apache License Version 2.0 and comes with ABSOLUTELY NO WARRANTY.
See the "LICENSE" file distributed with this software for details.
**************************************************************************************************

OpenFAST--128-NOTFOUND
Compile Info:
 - Compiler: Intel(R) Visual Fortran Intel(R) 64 Compiler for applications running on Intel(R)
 64, Version 19.0.5.281 Build 20190815
 - Architecture: 64 bit
 - Precision: double
 - Date: Nov 06 2020
 - Time: 13:50:38
Execution Info:
 - Date: 11/06/2020
 - Time: 16:22:13-0600

OpenFAST input file heading:
    FAST Certification Test #10: UAE Phase VI (upwind) with no DOFs in a ramped wind.

Running ElastoDyn.
Nodal outputs section of ElastoDyn input file not found or improperly formatted.
Running AeroDyn.
Nodal output section of AeroDyn input file not found or improperly formatted.
Running InflowWind.
Running ServoDyn.
 Time: 0 of 25 seconds.                                                                                                   Time: 1 of 25 seconds.  Estimated final completion at 16:22:53.                                                                                                   Time: 2 of 25 seconds.  Estimated final completion at 16:22:51.                                                                                                   Time: 3 of 25 seconds.  Estimated final completion at 16:22:53.                                                                                                   Time: 4 of 25 seconds.  Estimated final completion at 16:22:51.                                                                                                   Time: 5 of 25 seconds.  Estimated final completion at 16:22:53.                                                                                                   Time: 6 of 25 seconds.  Estimated final completion at 16:22:52.                                                                                                   Time: 7 of 25 seconds.  Estimated final completion at 16:22:52.                                                                                                   Time: 8 of 25 seconds.  Estimated final completion at 16:22:52.                                                                                                   Time: 9 of 25 seconds.  Estimated final completion at 16:22:52.                                                                                                   Time: 10 of 25 seconds.  Estimated final completion at 16:22:51.                                                                                                   Time: 11 of 25 seconds.  Estimated final completion at 16:22:52.                                                                                                   Time: 12 of 25 seconds.  Estimated final completion at 16:22:51.                                                                                                   Time: 13 of 25 seconds.  Estimated final completion at 16:22:50.                                                                                                   Time: 14 of 25 seconds.  Estimated final completion at 16:22:50.                                                                                                   Time: 15 of 25 seconds.  Estimated final completion at 16:22:51.                                                                                                   Time: 16 of 25 seconds.  Estimated final completion at 16:22:50.                                                                                                   Time: 17 of 25 seconds.  Estimated final completion at 16:22:50.                                                                                                   Time: 18 of 25 seconds.  Estimated final completion at 16:22:50.
The BEM solution is being turned off due to low TSR.  (TSR = 1.9996). This warning will not be
repeated though the condition may persist. (See GeomPhi output channel.)                                                                                                   Time: 19 of 25 seconds.  Estimated final completion at 16:22:51.                                                                                                   Time: 20 of 25 seconds.  Estimated final completion at 16:22:51.                                                                                                   Time: 21 of 25 seconds.  Estimated final completion at 16:22:51.                                                                                                   Time: 22 of 25 seconds.  Estimated final completion at 16:22:51.                                                                                                   Time: 23 of 25 seconds.  Estimated final completion at 16:22:51.                                                                                                   Time: 24 of 25 seconds.  Estimated final completion at 16:22:51.                                                                                                   Time: 25 of 25 seconds.  Estimated final completion at 16:22:51.                                                                                                  

 Total Real Time:       37.105 seconds
 Total CPU Time:        36.484 seconds
 Simulation CPU Time:   36.391 seconds
 Simulated Time:        25 seconds
 Time Ratio (Sim/CPU):  0.68699

 OpenFAST terminated normally.

