
**************************************************************************************************
OpenFAST

Copyright (C) 2022 National Renewable Energy Laboratory
Copyright (C) 2022 Envision Energy USA LTD

This program is licensed under Apache License Version 2.0 and comes with ABSOLUTELY NO WARRANTY.
See the "LICENSE" file distributed with this software for details.
**************************************************************************************************

OpenFAST-v3.1.0-243-ge6028eae
Compile Info:
 - Compiler: Intel(R) Fortran Intel(R) 64 Compiler Classic for applications running on Intel(R)
 64, Version 2021.1 Build 20201112_000000
 - Architecture: 64 bit
 - Precision: double
 - OpenMP: No
 - Date: Jul 06 2022
 - Time: 23:27:00
Execution Info:
 - Date: 07/07/2022
 - Time: 15:29:34-0500

OpenFAST input file heading:
    FAST Certification Test #21: NREL 5.0 MW Baseline Offshore Turbine with OC4 Jacket
    Configuration

Running ElastoDyn.
Nodal outputs section of ElastoDyn input file not found or improperly formatted.
Running AeroDyn.
AD15 Nodal Outputs: Nodal output section of AeroDyn input file not found or improperly formatted.
Skipping nodal outputs.
Warning: Turning off Unsteady Aerodynamics because UA parameters are not included in airfoil
(airfoil has likely has constant polars). (node 1, blade 1)
Warning: Turning off Unsteady Aerodynamics because UA parameters are not included in airfoil
(airfoil has likely has constant polars). (node 2, blade 1)
Warning: Turning off Unsteady Aerodynamics because UA parameters are not included in airfoil
(airfoil has likely has constant polars). (node 3, blade 1)
Warning: Turning off Unsteady Aerodynamics because UA parameters are not included in airfoil
(airfoil has likely has constant polars). (node 4, blade 1)
Warning: Turning off Unsteady Aerodynamics because UA parameters are not included in airfoil
(airfoil has likely has constant polars). (node 1, blade 2)
Warning: Turning off Unsteady Aerodynamics because UA parameters are not included in airfoil
(airfoil has likely has constant polars). (node 2, blade 2)
Warning: Turning off Unsteady Aerodynamics because UA parameters are not included in airfoil
(airfoil has likely has constant polars). (node 3, blade 2)
Warning: Turning off Unsteady Aerodynamics because UA parameters are not included in airfoil
(airfoil has likely has constant polars). (node 4, blade 2)
Warning: Turning off Unsteady Aerodynamics because UA parameters are not included in airfoil
(airfoil has likely has constant polars). (node 1, blade 3)
Warning: Turning off Unsteady Aerodynamics because UA parameters are not included in airfoil
(airfoil has likely has constant polars). (node 2, blade 3)
Warning: Turning off Unsteady Aerodynamics because UA parameters are not included in airfoil
(airfoil has likely has constant polars). (node 3, blade 3)
Warning: Turning off Unsteady Aerodynamics because UA parameters are not included in airfoil
(airfoil has likely has constant polars). (node 4, blade 3)
Running InflowWind.

   Reading a 31x31 grid (145 m wide, 17.5 m to 162.5 m above ground) with a characteristic wind
   speed of 12 m/s. This full-field file was generated by TurbSim (from
   OpenFAST-v3.0.0-98-g7bde6b54) on 14-Sep-2021 at 11:49:55.

   Processed 1442 time steps of 20-Hz full-field data (72.05 seconds).
Running HydroDyn.
 Generating incident wave kinematics and current time history.
Running SubDyn.
   Fixed bottom case detected
   Performing Craig-Bampton reduction 1056 DOFs -> 8 modes + 48 DOFs
[WARN] Complex eigenvalue found with small Im compare to Re
[WARN] Complex eigenvalue found with small Im compare to Re
[WARN] Complex eigenvalue found with small Im compare to Re
[WARN] Complex eigenvalue found with small Im compare to Re
   Using static improvement method for gravity and ext. loads
   SubDyn recommended dt: 0.00512 - Current dt: 0.01000 - Max frequency:    9.758
   Calculating Full System Modes for output files
   Exporting Summary file
Running ServoDyn.
Running ServoDyn Interface for Bladed Controllers (using Intel Visual Fortran for Windows).
Using legacy Bladed DLL interface.
 Time: 0 of 60 seconds.

FAST_Solution:FAST_AdvanceStates:SrvD_UpdateStates:DLL_controller_call:BladedInterface option was
designed for an explicit-loose coupling scheme. Using last calculated values from DLL on all
subsequent calls until time is advanced. Warning will not be displayed again.
                                                                                                   Time: 1 of 60 seconds.  Estimated final completion at 16:09:34.                                                                                                   Time: 2 of 60 seconds.  Estimated final completion at 15:40:39.                                                                                                   Time: 3 of 60 seconds.  Estimated final completion at 15:40:17.                                                                                                   Time: 4 of 60 seconds.  Estimated final completion at 15:40:19.                                                                                                   Time: 5 of 60 seconds.  Estimated final completion at 15:40:18.                                                                                                   Time: 6 of 60 seconds.  Estimated final completion at 15:40:16.                                                                                                   Time: 7 of 60 seconds.  Estimated final completion at 15:40:27.                                                                                                   Time: 8 of 60 seconds.  Estimated final completion at 15:40:19.                                                                                                   Time: 9 of 60 seconds.  Estimated final completion at 15:40:48.                                                                                                   Time: 10 of 60 seconds.  Estimated final completion at 15:40:37.                                                                                                   Time: 11 of 60 seconds.  Estimated final completion at 15:40:39.                                                                                                   Time: 12 of 60 seconds.  Estimated final completion at 15:40:37.                                                                                                   Time: 13 of 60 seconds.  Estimated final completion at 15:40:42.                                                                                                   Time: 14 of 60 seconds.  Estimated final completion at 15:40:49.                                                                                                   Time: 15 of 60 seconds.  Estimated final completion at 15:40:37.                                                                                                   Time: 16 of 60 seconds.  Estimated final completion at 15:40:23.                                                                                                   Time: 17 of 60 seconds.  Estimated final completion at 15:40:24.                                                                                                   Time: 18 of 60 seconds.  Estimated final completion at 15:40:29.                                                                                                   Time: 19 of 60 seconds.  Estimated final completion at 15:40:30.                                                                                                   Time: 20 of 60 seconds.  Estimated final completion at 15:40:27.                                                                                                   Time: 21 of 60 seconds.  Estimated final completion at 15:40:28.                                                                                                   Time: 22 of 60 seconds.  Estimated final completion at 15:40:45.                                                                                                   Time: 23 of 60 seconds.  Estimated final completion at 15:40:54.                                                                                                   Time: 24 of 60 seconds.  Estimated final completion at 15:40:51.                                                                                                   Time: 25 of 60 seconds.  Estimated final completion at 15:40:53.                                                                                                   Time: 26 of 60 seconds.  Estimated final completion at 15:40:40.                                                                                                   Time: 27 of 60 seconds.  Estimated final completion at 15:40:51.                                                                                                   Time: 28 of 60 seconds.  Estimated final completion at 15:41:02.                                                                                                   Time: 29 of 60 seconds.  Estimated final completion at 15:40:49.                                                                                                   Time: 30 of 60 seconds.  Estimated final completion at 15:40:56.                                                                                                   Time: 31 of 60 seconds.  Estimated final completion at 15:40:51.                                                                                                   Time: 32 of 60 seconds.  Estimated final completion at 15:40:49.                                                                                                   Time: 33 of 60 seconds.  Estimated final completion at 15:40:60.                                                                                                   Time: 34 of 60 seconds.  Estimated final completion at 15:40:58.                                                                                                   Time: 35 of 60 seconds.  Estimated final completion at 15:40:45.                                                                                                   Time: 36 of 60 seconds.  Estimated final completion at 15:40:45.                                                                                                   Time: 37 of 60 seconds.  Estimated final completion at 15:40:38.                                                                                                   Time: 38 of 60 seconds.  Estimated final completion at 15:40:39.                                                                                                   Time: 39 of 60 seconds.  Estimated final completion at 15:40:40.                                                                                                   Time: 40 of 60 seconds.  Estimated final completion at 15:40:39.                                                                                                   Time: 41 of 60 seconds.  Estimated final completion at 15:40:38.                                                                                                   Time: 42 of 60 seconds.  Estimated final completion at 15:40:19.                                                                                                   Time: 43 of 60 seconds.  Estimated final completion at 15:40:11.                                                                                                   Time: 44 of 60 seconds.  Estimated final completion at 15:40:43.                                                                                                   Time: 45 of 60 seconds.  Estimated final completion at 15:40:50.                                                                                                   Time: 46 of 60 seconds.  Estimated final completion at 15:40:24.                                                                                                   Time: 47 of 60 seconds.  Estimated final completion at 15:40:18.                                                                                                   Time: 48 of 60 seconds.  Estimated final completion at 15:40:17.                                                                                                   Time: 49 of 60 seconds.  Estimated final completion at 15:40:20.                                                                                                   Time: 50 of 60 seconds.  Estimated final completion at 15:40:18.                                                                                                   Time: 51 of 60 seconds.  Estimated final completion at 15:40:18.                                                                                                   Time: 52 of 60 seconds.  Estimated final completion at 15:40:19.                                                                                                   Time: 53 of 60 seconds.  Estimated final completion at 15:40:17.                                                                                                   Time: 54 of 60 seconds.  Estimated final completion at 15:40:17.                                                                                                   Time: 55 of 60 seconds.  Estimated final completion at 15:40:16.                                                                                                   Time: 56 of 60 seconds.  Estimated final completion at 15:40:17.                                                                                                   Time: 57 of 60 seconds.  Estimated final completion at 15:40:17.                                                                                                   Time: 58 of 60 seconds.  Estimated final completion at 15:40:17.                                                                                                   Time: 59 of 60 seconds.  Estimated final completion at 15:40:17.                                                                                                   Time: 60 of 60 seconds.  Estimated final completion at 15:40:17.                                                                                                  

 Total Real Time:       10.698 minutes
 Total CPU Time:        10.688 minutes
 Simulation CPU Time:   10.313 minutes
 Simulated Time:        1 minutes
 Time Ratio (Sim/CPU):  9.69648E-02

 OpenFAST terminated normally.

