
**************************************************************************************************
OpenFAST

Copyright (C) 2021 National Renewable Energy Laboratory
Copyright (C) 2021 Envision Energy USA LTD

This program is licensed under Apache License Version 2.0 and comes with ABSOLUTELY NO WARRANTY.
See the "LICENSE" file distributed with this software for details.
**************************************************************************************************

OpenFAST-v1.0.0-1800-g1082ba16
Compile Info:
 - Compiler: Intel(R) Fortran Intel(R) 64 Compiler Classic for applications running on Intel(R)
 64, Version 2021.1 Build 20201112_000000
 - Architecture: 64 bit
 - Precision: double
 - Date: Jan 28 2021
 - Time: 16:01:43
Execution Info:
 - Date: 01/28/2021
 - Time: 17:20:17-0600

OpenFAST input file heading:
    FAST Certification Test #21: NREL 5.0 MW Baseline Offshore Turbine with OC4 Jacket
    Configuration

Running ElastoDyn.
Nodal outputs section of ElastoDyn input file not found or improperly formatted.
Running AeroDyn.
AD15 Nodal Outputs: Nodal output section of AeroDyn input file not found or improperly formatted.
Skipping nodal outputs.
Warning: Turning off Unsteady Aerodynamics because C_nalpha is 0. (node 1, blade 1)
Warning: Turning off Unsteady Aerodynamics because C_nalpha is 0. (node 2, blade 1)
Warning: Turning off Unsteady Aerodynamics because C_nalpha is 0. (node 3, blade 1)
Warning: Turning off Unsteady Aerodynamics because C_nalpha is 0. (node 4, blade 1)
Warning: Turning off Unsteady Aerodynamics because C_nalpha is 0. (node 1, blade 2)
Warning: Turning off Unsteady Aerodynamics because C_nalpha is 0. (node 2, blade 2)
Warning: Turning off Unsteady Aerodynamics because C_nalpha is 0. (node 3, blade 2)
Warning: Turning off Unsteady Aerodynamics because C_nalpha is 0. (node 4, blade 2)
Warning: Turning off Unsteady Aerodynamics because C_nalpha is 0. (node 1, blade 3)
Warning: Turning off Unsteady Aerodynamics because C_nalpha is 0. (node 2, blade 3)
Warning: Turning off Unsteady Aerodynamics because C_nalpha is 0. (node 3, blade 3)
Warning: Turning off Unsteady Aerodynamics because C_nalpha is 0. (node 4, blade 3)
Running InflowWind.

   Reading a 31x31 grid (145 m wide, 17.5 m to 162.5 m above ground) with a characteristic wind
   speed of 12 m/s. This full-field file was generated by TurbSim (v1.06.00, 21-Sep-2012) on
   07-Jan-2014 at 12:50:45.

   Processed 1442 time steps of 20-Hz full-field data (72.05 seconds).
Running ServoDyn.
Running ServoDyn Interface for Bladed Controllers (using Intel Visual Fortran for Windows, ).
Using legacy Bladed DLL interface.
Running HydroDyn.
 Generating incident wave kinematics and current time history.
Running SubDyn.
   Fixed bottom case detected
   Performing Craig-Bampton reduction 1056 DOFs -> 8 modes + 48 DOFs
[WARN] Complex eigenvalue found with small Im compare to Re
[WARN] Complex eigenvalue found with small Im compare to Re
[WARN] Complex eigenvalue found with small Im compare to Re
[WARN] Complex eigenvalue found with small Im compare to Re
   Using static improvement method for gravity and ext. loads
   SubDyn recommended dt: 0.00512 - Current dt: 0.01000 - Max frequency: 9.75841
   Calculating Full System Modes for summary file
 Time: 0 of 60 seconds.

FAST_Solution:FAST_AdvanceStates:SrvD_UpdateStates:DLL_controller_call:BladedInterface option was
designed for an explicit-loose coupling scheme. Using last calculated values from DLL on all
subsequent calls until time is advanced. Warning will not be displayed again.
                                                                                                   Time: 1 of 60 seconds.  Estimated final completion at 18:05:59.                                                                                                   Time: 2 of 60 seconds.  Estimated final completion at 17:33:02.                                                                                                   Time: 3 of 60 seconds.  Estimated final completion at 17:33:46.                                                                                                   Time: 4 of 60 seconds.  Estimated final completion at 17:33:21.                                                                                                   Time: 5 of 60 seconds.  Estimated final completion at 17:32:21.                                                                                                   Time: 6 of 60 seconds.  Estimated final completion at 17:32:19.                                                                                                   Time: 7 of 60 seconds.  Estimated final completion at 17:31:29.                                                                                                   Time: 8 of 60 seconds.  Estimated final completion at 17:31:50.                                                                                                   Time: 9 of 60 seconds.  Estimated final completion at 17:31:50.                                                                                                   Time: 10 of 60 seconds.  Estimated final completion at 17:31:30.                                                                                                   Time: 11 of 60 seconds.  Estimated final completion at 17:31:29.                                                                                                   Time: 12 of 60 seconds.  Estimated final completion at 17:31:30.                                                                                                   Time: 13 of 60 seconds.  Estimated final completion at 17:31:25.                                                                                                   Time: 14 of 60 seconds.  Estimated final completion at 17:31:42.                                                                                                   Time: 15 of 60 seconds.  Estimated final completion at 17:31:54.                                                                                                   Time: 16 of 60 seconds.  Estimated final completion at 17:31:36.                                                                                                   Time: 17 of 60 seconds.  Estimated final completion at 17:31:48.                                                                                                   Time: 18 of 60 seconds.  Estimated final completion at 17:31:20.                                                                                                   Time: 19 of 60 seconds.  Estimated final completion at 17:30:42.                                                                                                   Time: 20 of 60 seconds.  Estimated final completion at 17:30:51.                                                                                                   Time: 21 of 60 seconds.  Estimated final completion at 17:31:08.                                                                                                   Time: 22 of 60 seconds.  Estimated final completion at 17:31:01.                                                                                                   Time: 23 of 60 seconds.  Estimated final completion at 17:31:00.                                                                                                   Time: 24 of 60 seconds.  Estimated final completion at 17:30:54.                                                                                                   Time: 25 of 60 seconds.  Estimated final completion at 17:30:56.                                                                                                   Time: 26 of 60 seconds.  Estimated final completion at 17:31:00.                                                                                                   Time: 27 of 60 seconds.  Estimated final completion at 17:31:04.                                                                                                   Time: 28 of 60 seconds.  Estimated final completion at 17:31:01.                                                                                                   Time: 29 of 60 seconds.  Estimated final completion at 17:30:50.                                                                                                   Time: 30 of 60 seconds.  Estimated final completion at 17:30:59.                                                                                                   Time: 31 of 60 seconds.  Estimated final completion at 17:30:56.                                                                                                   Time: 32 of 60 seconds.  Estimated final completion at 17:30:48.                                                                                                   Time: 33 of 60 seconds.  Estimated final completion at 17:30:45.                                                                                                   Time: 34 of 60 seconds.  Estimated final completion at 17:30:49.                                                                                                   Time: 35 of 60 seconds.  Estimated final completion at 17:30:54.                                                                                                   Time: 36 of 60 seconds.  Estimated final completion at 17:30:46.                                                                                                   Time: 37 of 60 seconds.  Estimated final completion at 17:30:44.                                                                                                   Time: 38 of 60 seconds.  Estimated final completion at 17:30:44.                                                                                                   Time: 39 of 60 seconds.  Estimated final completion at 17:30:43.                                                                                                   Time: 40 of 60 seconds.  Estimated final completion at 17:30:42.                                                                                                   Time: 41 of 60 seconds.  Estimated final completion at 17:30:44.                                                                                                   Time: 42 of 60 seconds.  Estimated final completion at 17:30:47.                                                                                                   Time: 43 of 60 seconds.  Estimated final completion at 17:30:49.                                                                                                   Time: 44 of 60 seconds.  Estimated final completion at 17:30:48.                                                                                                   Time: 45 of 60 seconds.  Estimated final completion at 17:30:48.                                                                                                   Time: 46 of 60 seconds.  Estimated final completion at 17:30:45.                                                                                                   Time: 47 of 60 seconds.  Estimated final completion at 17:30:51.                                                                                                   Time: 48 of 60 seconds.  Estimated final completion at 17:30:47.                                                                                                   Time: 49 of 60 seconds.  Estimated final completion at 17:30:48.                                                                                                   Time: 50 of 60 seconds.  Estimated final completion at 17:30:44.                                                                                                   Time: 51 of 60 seconds.  Estimated final completion at 17:30:48.                                                                                                   Time: 52 of 60 seconds.  Estimated final completion at 17:30:46.                                                                                                   Time: 53 of 60 seconds.  Estimated final completion at 17:30:45.                                                                                                   Time: 54 of 60 seconds.  Estimated final completion at 17:30:51.                                                                                                   Time: 55 of 60 seconds.  Estimated final completion at 17:30:51.                                                                                                   Time: 56 of 60 seconds.  Estimated final completion at 17:30:57.                                                                                                   Time: 57 of 60 seconds.  Estimated final completion at 17:30:59.                                                                                                   Time: 58 of 60 seconds.  Estimated final completion at 17:30:58.                                                                                                   Time: 59 of 60 seconds.  Estimated final completion at 17:30:56.                                                                                                   Time: 60 of 60 seconds.  Estimated final completion at 17:30:56.                                                                                                  

 Total Real Time:       10.639 minutes
 Total CPU Time:        10.632 minutes
 Simulation CPU Time:   10.241 minutes
 Simulated Time:        1 minutes
 Time Ratio (Sim/CPU):  9.76478E-02

 OpenFAST terminated normally.

