
**************************************************************************************************
OpenFAST

Copyright (C) 2020 National Renewable Energy Laboratory
Copyright (C) 2020 Envision Energy USA LTD

This program is licensed under Apache License Version 2.0 and comes with ABSOLUTELY NO WARRANTY.
See the "LICENSE" file distributed with this software for details.
**************************************************************************************************

OpenFAST--128-NOTFOUND
Compile Info:
 - Compiler: Intel(R) Visual Fortran Intel(R) 64 Compiler for applications running on Intel(R)
 64, Version 19.0.5.281 Build 20190815
 - Architecture: 64 bit
 - Precision: double
 - Date: Nov 06 2020
 - Time: 13:50:38
Execution Info:
 - Date: 11/06/2020
 - Time: 16:23:19-0600

OpenFAST input file heading:
    FAST Certification Test #21: NREL 5.0 MW Baseline Offshore Turbine with OC4 Jacket
    Configuration

Running ElastoDyn.
Nodal outputs section of ElastoDyn input file not found or improperly formatted.
Running AeroDyn.
Nodal output section of AeroDyn input file not found or improperly formatted.
Warning: Turning off Unsteady Aerodynamics because C_nalpha is 0. (node 1, blade 1)
Warning: Turning off Unsteady Aerodynamics because C_nalpha is 0. (node 2, blade 1)
Warning: Turning off Unsteady Aerodynamics because C_nalpha is 0. (node 3, blade 1)
Warning: Turning off Unsteady Aerodynamics because C_nalpha is 0. (node 4, blade 1)
Warning: Turning off Unsteady Aerodynamics because C_nalpha is 0. (node 1, blade 2)
Warning: Turning off Unsteady Aerodynamics because C_nalpha is 0. (node 2, blade 2)
Warning: Turning off Unsteady Aerodynamics because C_nalpha is 0. (node 3, blade 2)
Warning: Turning off Unsteady Aerodynamics because C_nalpha is 0. (node 4, blade 2)
Warning: Turning off Unsteady Aerodynamics because C_nalpha is 0. (node 1, blade 3)
Warning: Turning off Unsteady Aerodynamics because C_nalpha is 0. (node 2, blade 3)
Warning: Turning off Unsteady Aerodynamics because C_nalpha is 0. (node 3, blade 3)
Warning: Turning off Unsteady Aerodynamics because C_nalpha is 0. (node 4, blade 3)
Running InflowWind.

   Reading a 31x31 grid (145 m wide, 17.5 m to 162.5 m above ground) with a characteristic wind
   speed of 12 m/s. This full-field file was generated by TurbSim (v1.06.00, 21-Sep-2012) on
   07-Jan-2014 at 12:50:45.

   Processed 1442 time steps of 20-Hz full-field data (72.05 seconds).
Running ServoDyn.
Running ServoDyn Interface for Bladed Controllers (using Intel Visual Fortran for Windows, ).
Using legacy Bladed DLL interface.
Running HydroDyn.
 Generating incident wave kinematics and current time history.
Running SubDyn.
   Calculating Internal Modal Eigenvectors
 Time: 0 of 60 seconds.

FAST_Solution0:CalcOutputs_And_SolveForInputs:SolveOption2:SrvD_CalcOutput:DLL_controller_call:Run
ning with torque and pitch control of the NREL offshore 5MW baseline wind turbine from DISCON.dll
as written by J. Jonkman of NREL/NWTC for use in the IEA Annex XXIII OC3 studies.


FAST_Solution:FAST_AdvanceStates:SrvD_UpdateStates:DLL_controller_call:BladedInterface option was
designed for an explicit-loose coupling scheme. Using last calculated values from DLL on all
subsequent calls until time is advanced. Warning will not be displayed again.
                                                                                                   Time: 1 of 60 seconds.  Estimated final completion at 18:25:58.                                                                                                   Time: 2 of 60 seconds.  Estimated final completion at 16:47:56.                                                                                                   Time: 3 of 60 seconds.  Estimated final completion at 16:48:13.                                                                                                   Time: 4 of 60 seconds.  Estimated final completion at 16:49:50.                                                                                                   Time: 5 of 60 seconds.  Estimated final completion at 16:48:42.                                                                                                   Time: 6 of 60 seconds.  Estimated final completion at 16:46:43.                                                                                                   Time: 7 of 60 seconds.  Estimated final completion at 16:45:36.                                                                                                   Time: 8 of 60 seconds.  Estimated final completion at 16:45:08.                                                                                                   Time: 9 of 60 seconds.  Estimated final completion at 16:44:22.                                                                                                   Time: 10 of 60 seconds.  Estimated final completion at 16:44:05.                                                                                                   Time: 11 of 60 seconds.  Estimated final completion at 16:44:10.                                                                                                   Time: 12 of 60 seconds.  Estimated final completion at 16:44:10.                                                                                                   Time: 13 of 60 seconds.  Estimated final completion at 16:43:52.                                                                                                   Time: 14 of 60 seconds.  Estimated final completion at 16:43:50.                                                                                                   Time: 15 of 60 seconds.  Estimated final completion at 16:43:50.                                                                                                   Time: 16 of 60 seconds.  Estimated final completion at 16:43:48.                                                                                                   Time: 17 of 60 seconds.  Estimated final completion at 16:44:16.                                                                                                   Time: 18 of 60 seconds.  Estimated final completion at 16:44:08.                                                                                                   Time: 19 of 60 seconds.  Estimated final completion at 16:43:46.                                                                                                   Time: 20 of 60 seconds.  Estimated final completion at 16:43:41.                                                                                                   Time: 21 of 60 seconds.  Estimated final completion at 16:43:11.                                                                                                   Time: 22 of 60 seconds.  Estimated final completion at 16:43:11.                                                                                                   Time: 23 of 60 seconds.  Estimated final completion at 16:43:11.                                                                                                   Time: 24 of 60 seconds.  Estimated final completion at 16:43:14.                                                                                                   Time: 25 of 60 seconds.  Estimated final completion at 16:43:13.                                                                                                   Time: 26 of 60 seconds.  Estimated final completion at 16:43:10.                                                                                                   Time: 27 of 60 seconds.  Estimated final completion at 16:43:15.                                                                                                   Time: 28 of 60 seconds.  Estimated final completion at 16:41:28.                                                                                                   Time: 29 of 60 seconds.  Estimated final completion at 16:41:27.                                                                                                   Time: 30 of 60 seconds.  Estimated final completion at 16:41:23.                                                                                                   Time: 31 of 60 seconds.  Estimated final completion at 16:41:28.                                                                                                   Time: 32 of 60 seconds.  Estimated final completion at 16:41:27.                                                                                                   Time: 33 of 60 seconds.  Estimated final completion at 16:41:22.                                                                                                   Time: 34 of 60 seconds.  Estimated final completion at 16:41:24.                                                                                                   Time: 35 of 60 seconds.  Estimated final completion at 16:41:24.                                                                                                   Time: 36 of 60 seconds.  Estimated final completion at 16:41:27.                                                                                                   Time: 37 of 60 seconds.  Estimated final completion at 16:41:26.                                                                                                   Time: 38 of 60 seconds.  Estimated final completion at 16:41:25.                                                                                                   Time: 39 of 60 seconds.  Estimated final completion at 16:41:24.                                                                                                   Time: 40 of 60 seconds.  Estimated final completion at 16:41:27.                                                                                                   Time: 41 of 60 seconds.  Estimated final completion at 16:41:26.                                                                                                   Time: 42 of 60 seconds.  Estimated final completion at 16:41:24.                                                                                                   Time: 43 of 60 seconds.  Estimated final completion at 16:41:25.                                                                                                   Time: 44 of 60 seconds.  Estimated final completion at 16:41:25.                                                                                                   Time: 45 of 60 seconds.  Estimated final completion at 16:41:26.                                                                                                   Time: 46 of 60 seconds.  Estimated final completion at 16:41:27.                                                                                                   Time: 47 of 60 seconds.  Estimated final completion at 16:41:28.                                                                                                   Time: 48 of 60 seconds.  Estimated final completion at 16:41:26.                                                                                                   Time: 49 of 60 seconds.  Estimated final completion at 16:41:26.                                                                                                   Time: 50 of 60 seconds.  Estimated final completion at 16:41:25.                                                                                                   Time: 51 of 60 seconds.  Estimated final completion at 16:41:26.                                                                                                   Time: 52 of 60 seconds.  Estimated final completion at 16:41:26.                                                                                                   Time: 53 of 60 seconds.  Estimated final completion at 16:41:26.                                                                                                   Time: 54 of 60 seconds.  Estimated final completion at 16:41:26.                                                                                                   Time: 55 of 60 seconds.  Estimated final completion at 16:41:26.                                                                                                   Time: 56 of 60 seconds.  Estimated final completion at 16:41:26.                                                                                                   Time: 57 of 60 seconds.  Estimated final completion at 16:41:28.                                                                                                   Time: 58 of 60 seconds.  Estimated final completion at 16:41:27.                                                                                                   Time: 59 of 60 seconds.  Estimated final completion at 16:41:27.                                                                                                   Time: 60 of 60 seconds.  Estimated final completion at 16:41:27.                                                                                                  

 Total Real Time:       18.133 minutes
 Total CPU Time:        18.079 minutes
 Simulation CPU Time:   17.3 minutes
 Simulated Time:        1 minutes
 Time Ratio (Sim/CPU):  5.78026E-02

 OpenFAST terminated normally.

