
 **************************************************************************************************
 OpenFAST

 Copyright (C) 2020 National Renewable Energy Laboratory
 Copyright (C) 2020 Envision Energy USA LTD

 This program is licensed under Apache License Version 2.0 and comes with ABSOLUTELY NO WARRANTY.
 See the "LICENSE" file distributed with this software for details.
 **************************************************************************************************

 OpenFAST-v2.4.0-50-g416ff436
 Compile Info:
  - Compiler: GCC version 7.4.0
  - Architecture: 64 bit
  - Precision: double
  - Date: Nov  6 2020
  - Time: 12:35:02
 Execution Info:
  - Date: 11/06/2020
  - Time: 12:35:37-0700

 OpenFAST input file heading:
     FAST Certification Test #07: AOC 15/50 with many DOFs with free yaw and FF turbulence. Many
     parameters are pure fiction.

 Running ElastoDyn.
 Nodal outputs section of ElastoDyn input file not found or improperly formatted.
 Running AeroDyn.
 Nodal output section of AeroDyn input file not found or improperly formatted.
 Running InflowWind.

    Reading a 6x6 grid (18 m wide, 16 m to 34 m above ground) with a characteristic wind speed of
    12 m/s.

    Processed 1430 time steps of 20-Hz full-field data (71.45 seconds).
 Running ServoDyn.
  Time: 0 of 70 seconds.
 Warning: Turning off Unsteady Aerodynamics due to high angle of attack (67.571 deg). (node 2,
 blade 1)
 Warning: Turning off Unsteady Aerodynamics due to high angle of attack (57.5 deg). (node 3, blade
 1)
 Warning: Turning off Unsteady Aerodynamics due to high angle of attack (62.528 deg). (node 2,
 blade 2)
 Warning: Turning off Unsteady Aerodynamics due to high angle of attack (52.598 deg). (node 3,
 blade 2)
 Warning: Turning off Unsteady Aerodynamics due to high angle of attack (60.33 deg). (node 2,
 blade 3)
 Warning: Turning off Unsteady Aerodynamics due to high angle of attack (53.342 deg). (node 3,
 blade 3)
 Warning: Turning off Unsteady Aerodynamics due to high angle of attack (45.251 deg). (node 4,
 blade 1)
 Warning: Turning off Unsteady Aerodynamics due to high angle of attack (45.181 deg). (node 4,
 blade 3)
 Warning: Turning off Unsteady Aerodynamics due to high angle of attack (45.048 deg). (node 4,
 blade 2)
 Warning: Turning off Unsteady Aerodynamics due to high angle of attack (170.77 deg). (node 1,
 blade 2)
 Warning: Turning off Unsteady Aerodynamics due to high angle of attack (170.77 deg). (node 1,
 blade 1)
 Warning: Turning off Unsteady Aerodynamics due to high angle of attack (170.77 deg). (node 1,
 blade 3)
                                                                                                   Time: 5 of 70 seconds.  Estimated final completion at 12:37:54.                                                                                                                                     Time: 10 of 70 seconds.  Estimated final completion at 12:38:09.                                  Warning: Turning off Unsteady Aerodynamics due to high angle of attack (45.161 deg). (node 5,
 blade 2)
                                                                                                   Time: 15 of 70 seconds.  Estimated final completion at 12:38:08.                                                                                                                                    Time: 20 of 70 seconds.  Estimated final completion at 12:38:27.                                                                                                                                    Time: 25 of 70 seconds.  Estimated final completion at 12:39:37.                                                                                                                                    Time: 30 of 70 seconds.  Estimated final completion at 12:39:54.                                                                                                                                    Time: 35 of 70 seconds.  Estimated final completion at 12:39:17.                                                                                                                                    Time: 40 of 70 seconds.  Estimated final completion at 12:39:04.                                                                                                                                    Time: 45 of 70 seconds.  Estimated final completion at 12:39:04.                                                                                                                                    Time: 50 of 70 seconds.  Estimated final completion at 12:39:03.                                                                                                                                    Time: 55 of 70 seconds.  Estimated final completion at 12:38:60.                                                                                                                                    Time: 60 of 70 seconds.  Estimated final completion at 12:39:03.                                                                                                                                    Time: 65 of 70 seconds.  Estimated final completion at 12:39:07.                                                                                                                                    Time: 70 of 70 seconds.  Estimated final completion at 12:39:07.                                                                                                                                   
  Total Real Time:       3.4819 minutes
  Total CPU Time:        3.1363 minutes
  Simulation CPU Time:   3.1356 minutes
  Simulated Time:        1.1667 minutes
  Time Ratio (Sim/CPU):  0.37207

  OpenFAST terminated normally.

