
 **************************************************************************************************
 OpenFAST

 Copyright (C) 2022 National Renewable Energy Laboratory
 Copyright (C) 2022 Envision Energy USA LTD

 This program is licensed under Apache License Version 2.0 and comes with ABSOLUTELY NO WARRANTY.
 See the "LICENSE" file distributed with this software for details.
 **************************************************************************************************

 OpenFAST-v3.1.0-243-ge6028eae
 Compile Info:
  - Compiler: GCC version 10.4.0
  - Architecture: 64 bit
  - Precision: double
  - OpenMP: No
  - Date: Jul  6 2022
  - Time: 19:16:34
 Execution Info:
  - Date: 07/06/2022
  - Time: 19:40:33-0500

 OpenFAST input file heading:
     FAST Certification Test #07: AOC 15/50 with many DOFs with free yaw and FF turbulence. Many
     parameters are pure fiction.

 Running ElastoDyn.
 Nodal outputs section of ElastoDyn input file not found or improperly formatted.
 Running AeroDyn.
 AD15 Nodal Outputs: Nodal output section of AeroDyn input file not found or improperly formatted.
 Skipping nodal outputs.
 Running InflowWind.

    Reading a 6x6 grid (18 m wide, 16 m to 34 m above ground) with a characteristic wind speed of
    12 m/s.

    Processed 1430 time steps of 20-Hz full-field data (71.45 seconds).
 Running ServoDyn.
  Time: 0 of 70 seconds.

 FAST_Solution:CalcOutputs_And_SolveForInputs:SolveOption2:RotCalcOutput:BEMT_CalcOutput(node 1,
 blade 1):UA_CalcOutput:UA_BlendSteady:Temporarily turning off UA due to high angle of attack or
 low relative velocity. This warning will not be repeated though the condition may persist.

                                                                                                   Time: 5 of 70 seconds.  Estimated final completion at 19:41:45.                                                                                                                                     Time: 10 of 70 seconds.  Estimated final completion at 19:41:49.                                                                                                                                    Time: 15 of 70 seconds.  Estimated final completion at 19:41:50.                                                                                                                                    Time: 20 of 70 seconds.  Estimated final completion at 19:41:52.                                                                                                                                    Time: 25 of 70 seconds.  Estimated final completion at 19:41:52.                                                                                                                                    Time: 30 of 70 seconds.  Estimated final completion at 19:41:51.                                                                                                                                    Time: 35 of 70 seconds.  Estimated final completion at 19:41:52.                                                                                                                                    Time: 40 of 70 seconds.  Estimated final completion at 19:41:52.                                                                                                                                    Time: 45 of 70 seconds.  Estimated final completion at 19:41:51.                                                                                                                                    Time: 50 of 70 seconds.  Estimated final completion at 19:41:51.                                                                                                                                    Time: 55 of 70 seconds.  Estimated final completion at 19:41:51.                                                                                                                                    Time: 60 of 70 seconds.  Estimated final completion at 19:41:51.                                                                                                                                    Time: 65 of 70 seconds.  Estimated final completion at 19:41:52.                                                                                                                                    Time: 70 of 70 seconds.  Estimated final completion at 19:41:52.                                                                                                                                   
  Total Real Time:       1.3134 minutes
  Total CPU Time:        1.3084 minutes
  Simulation CPU Time:   1.3075 minutes
  Simulated Time:        1.1667 minutes
  Time Ratio (Sim/CPU):  0.8923

  OpenFAST terminated normally.

