
These predictions were generated by HydroDyn on 16-Oct-2023 at 11:02:50.




    Time                       HydroFxi                       HydroFyi                       HydroFzi                       HydroMxi                       HydroMyi                       HydroMzi                        M1N1Vxi                        M1N1Vzi                        M1N1Axi                        M1N1Azi                       M1N1FDxi                       M1N1FDzi                       M1N1FIxi                       M1N1FIzi
   (sec)                            (N)                            (N)                            (N)                          (N-m)                          (N-m)                          (N-m)                          (m/s)                          (m/s)                        (m/s^2)                        (m/s^2)                          (N/m)                          (N/m)                          (N/m)                          (N/m)
    0.0000                      6.77675343E+05                      9.81799277E-10                      8.99662156E+06                      3.26819520E-08                     -9.41303399E+06                     -3.67136876E-08                      1.08906615E+00                     -4.94341731E-01                     -3.93907428E-01                     -5.39569139E-01                      1.50592864E+03                     -9.50254663E+02                     -3.76924435E+02                      2.37842746E+02
    0.0250                      6.31046721E+05                      9.08453000E-10                      8.99475588E+06                      2.65774601E-08                     -8.53086202E+06                     -3.86548432E-08                      1.07791809E+00                     -5.07166946E-01                     -4.04126969E-01                     -5.34045923E-01                      1.49936770E+03                     -9.46114653E+02                     -4.73597223E+02                      2.98844154E+02
    0.0500                      5.84448215E+05                      8.70831185E-10                      8.99289190E+06                      3.12291211E-08                     -7.64936685E+06                     -3.62886804E-08                      1.06677004E+00                     -5.19992161E-01                     -4.14346510E-01                     -5.28522706E-01                      1.49282109E+03                     -9.41983682E+02                     -5.70270012E+02                      3.59845563E+02
    0.0750                      5.37879829E+05                      6.07315847E-10                      8.99102950E+06                      4.01022317E-08                     -6.76854825E+06                     -3.85299431E-08                      1.05562199E+00                     -5.32817377E-01                     -4.24566053E-01                     -5.22999489E-01                      1.48628880E+03                     -9.37861748E+02                     -6.66942807E+02                      4.20846976E+02
    0.1000                      4.91341580E+05                      7.93093889E-10                      8.98916858E+06                      2.42459918E-08                     -5.88840620E+06                     -3.88283156E-08                      1.04447393E+00                     -5.45642591E-01                     -4.34785593E-01                     -5.17476272E-01                      1.47977084E+03                     -9.33748853E+02                     -7.63615588E+02                      4.81848380E+02
    0.1250                      4.44833467E+05                      7.47503188E-10                      8.98730903E+06                      2.14322703E-08                     -5.00894039E+06                     -4.00547651E-08                      1.03332588E+00                     -5.58467805E-01                     -4.45005134E-01                     -5.11953056E-01                      1.47326719E+03                     -9.29644996E+02                     -8.60288369E+02                      5.42849784E+02
    0.1500                      3.98355479E+05                      4.66098514E-10                      8.98545074E+06                      2.51272313E-08                     -4.13015033E+06                     -4.06116655E-08                      1.02217782E+00                     -5.71293023E-01                     -4.55224677E-01                     -5.06429838E-01                      1.46677787E+03                     -9.25550176E+02                     -9.56961179E+02                      6.03851206E+02
    0.1750                      3.51907660E+05                      7.14380811E-10                      8.98359360E+06                      1.57727350E-08                     -3.25203657E+06                     -3.81205484E-08                      1.01102978E+00                     -5.84118234E-01                     -4.65444215E-01                     -5.00906623E-01                      1.46030288E+03                     -9.21464397E+02                     -1.05363393E+03                      6.64852591E+02
    0.2000                      3.05489956E+05                      7.73686670E-10                      8.98173750E+06                      2.49815145E-08                     -2.37459781E+06                     -3.60232677E-08                      9.99881719E-01                     -5.96943452E-01                     -4.75663759E-01                     -4.95383405E-01                      1.45384221E+03                     -9.17387654E+02                     -1.15030674E+03                      7.25854013E+02
    0.2250                      2.59102421E+05                      6.29541991E-10                      8.97988232E+06                      3.61141024E-08                     -1.49783483E+06                     -3.80650372E-08                      9.88733670E-01                     -6.09768662E-01                     -4.85883296E-01                     -4.89860190E-01                      1.44739586E+03                     -9.13319951E+02                     -1.24697949E+03                      7.86855399E+02
    0.2500                      2.12744998E+05                      9.59573133E-10                      8.97802795E+06                      3.04138011E-08                     -6.21746291E+05                     -4.01102491E-08                      9.77585614E-01                     -6.22593880E-01                     -4.96102840E-01                     -4.84336972E-01                      1.44096384E+03                     -9.09261284E+02                     -1.34365230E+03                      8.47856821E+02
    0.2750                      1.64385191E+05                      7.76776646E-10                      8.97591546E+06                      1.44040381E-08                      2.77664359E+05                     -4.02282645E-08                      9.64030406E-01                     -6.33886048E-01                     -5.05100810E-01                     -4.77621157E-01                      1.42747438E+03                     -9.00749314E+02                     -1.43701656E+03                      9.06770517E+02
    0.3000                      1.16065896E+05                      6.18157869E-10                      8.97380974E+06                      4.29263615E-08                      1.17631451E+06                     -3.84293021E-08                      9.50475198E-01                     -6.45178216E-01                     -5.14098780E-01                     -4.70905342E-01                      1.41404836E+03                     -8.92277375E+02                     -1.53038082E+03                      9.65684213E+02
    0.3250                      6.77871235E+04                      7.12917139E-10                      8.97171058E+06                      2.47577352E-08                      2.07420342E+06                     -3.97372836E-08                      9.36920006E-01                     -6.56470371E-01                     -5.23096739E-01                     -4.64189536E-01                      1.40068580E+03                     -8.83845475E+02                     -1.62374497E+03                      1.02459784E+03
    0.3500                      1.95487486E+04                      8.31908327E-10                      8.96961787E+06                      2.42989008E-08                      2.97133359E+06                     -3.99714983E-08                      9.23364797E-01                     -6.67762539E-01                     -5.32094709E-01                     -4.57473721E-01                      1.38738665E+03                     -8.75453595E+02                     -1.71710923E+03                      1.08351153E+03
    0.3750                     -2.86491818E+04                      9.84184522E-10                      8.96753148E+06                      3.41547323E-08                      3.86770435E+06                     -3.84241250E-08                      9.09809589E-01                     -6.79054707E-01                     -5.41092679E-01                     -4.50757906E-01                      1.37415095E+03                     -8.67101744E+02                     -1.81047348E+03                      1.14242523E+03
    0.4000                     -7.68066810E+04                      6.82017377E-10                      8.96545126E+06                      3.53863859E-08                      4.76331608E+06                     -4.00617040E-08                      8.96254381E-01                     -6.90346875E-01                     -5.50090649E-01                     -4.44042091E-01                      1.36097868E+03                     -8.58789923E+02                     -1.90383774E+03                      1.20133893E+03
    0.4250                     -1.24923764E+05                      8.84980023E-10                      8.96337711E+06                      3.87066467E-08                      5.65816922E+06                     -3.81812637E-08                      8.82699173E-01                     -7.01639044E-01                     -5.59088619E-01                     -4.37326276E-01                      1.34786985E+03                     -8.50518131E+02                     -1.99720200E+03                      1.26025262E+03
    0.4500                     -1.73000392E+05                      6.83155789E-10                      8.96130886E+06                      2.74335462E-08                      6.55226314E+06                     -4.00512685E-08                      8.69143981E-01                     -7.12931198E-01                     -5.68086578E-01                     -4.30610469E-01                      1.33482447E+03                     -8.42286379E+02                     -2.09056615E+03                      1.31916625E+03
    0.4750                     -2.21036699E+05                      5.62917768E-10                      8.95924639E+06                      2.53336634E-08                      7.44560045E+06                     -3.80546289E-08                      8.55588773E-01                     -7.24223367E-01                     -5.77084548E-01                     -4.23894654E-01                      1.32184251E+03                     -8.34094646E+02                     -2.18393041E+03                      1.37807994E+03
    0.5000                     -2.69032650E+05                      7.45605834E-10                      8.95718955E+06                      3.66978369E-08                      8.33818058E+06                     -3.84501458E-08                      8.42033565E-01                     -7.35515535E-01                     -5.86082518E-01                     -4.17178839E-01                      1.30892400E+03                     -8.25942944E+02                     -2.27729466E+03                      1.43699364E+03
    0.5250                     -3.17743524E+05                      7.02779848E-10                      8.95496125E+06                      3.60256315E-08                      9.23095611E+06                     -3.82645304E-08                      8.26405016E-01                     -7.44996628E-01                     -5.93637352E-01                     -4.09435798E-01                      1.28966263E+03                     -8.13788847E+02                     -2.36505139E+03                      1.49236893E+03
    0.5500                     -3.66391236E+05                      8.77932709E-10                      8.95274411E+06                      3.01275717E-08                      1.01227116E+07                     -3.80771735E-08                      8.10776429E-01                     -7.54477744E-01                     -6.01192204E-01                     -4.01692738E-01                      1.27054399E+03                     -8.01724813E+02                     -2.45280833E+03                      1.54774436E+03
    0.5750                     -4.14975585E+05                      7.62790438E-10                      8.95053799E+06                      3.37410007E-08                      1.10134433E+07                     -4.00755614E-08                      7.95147879E-01                     -7.63958837E-01                     -6.08747038E-01                     -3.93949697E-01                      1.25156817E+03                     -7.89750898E+02                     -2.54056506E+03                      1.60311965E+03
    0.6000                     -4.63496838E+05                      9.75619325E-10                      8.94834272E+06                      3.79173475E-08                      1.19031561E+07                     -3.81882162E-08                      7.79519293E-01                     -7.73439953E-01                     -6.16301889E-01                     -3.86206637E-01                      1.23273508E+03                     -7.77867045E+02                     -2.62832200E+03                      1.65849508E+03
    0.6250                     -5.11954803E+05                      5.65357223E-10                      8.94615813E+06                      2.92090356E-08                      1.27918465E+07                     -3.82211623E-08                      7.63890743E-01                     -7.82921046E-01                     -6.23856723E-01                     -3.78463596E-01                      1.21404480E+03                     -7.66073311E+02                     -2.71607873E+03                      1.71387037E+03
    0.6500                     -5.60349640E+05                      8.53158690E-10                      8.94398406E+06                      2.01112784E-08                      1.36795172E+07                     -3.80771905E-08                      7.48262194E-01                     -7.92402139E-01                     -6.31411557E-01                     -3.70720555E-01                      1.19549730E+03                     -7.54369667E+02                     -2.80383546E+03                      1.76924567E+03
    0.6750                     -6.08681511E+05                      9.08453000E-10                      8.94182030E+06                      4.05870869E-08                      1.45661712E+07                     -3.82853454E-08                      7.32633607E-01                     -8.01883255E-01                     -6.38966409E-01                     -3.62977495E-01                      1.17709252E+03                     -7.42756086E+02                     -2.89159240E+03                      1.82462109E+03
    0.7000                     -6.56950241E+05                      8.87365268E-10                      8.93966668E+06                      2.72965030E-08                      1.54518050E+07                     -3.82766735E-08                      7.17005058E-01                     -8.11364348E-01                     -6.46521243E-01                     -3.55234454E-01                      1.15883056E+03                     -7.31232623E+02                     -2.97934912E+03                      1.87999639E+03
    0.7250                     -7.05156117E+05                      9.74264072E-10                      8.93752300E+06                      2.97042992E-08                      1.63364238E+07                     -3.83842230E-08                      7.01376471E-01                     -8.20845464E-01                     -6.54076095E-01                     -3.47491394E-01                      1.14071133E+03                     -7.19799224E+02                     -3.06710606E+03                      1.93537181E+03
    0.7500                     -7.53298982E+05                      9.24119722E-10                      8.93538907E+06                      3.77690286E-08                      1.72200244E+07                     -3.81726036E-08                      6.85747921E-01                     -8.30326557E-01                     -6.61630929E-01                     -3.39748353E-01                      1.12273492E+03                     -7.08455942E+02                     -3.15486279E+03                      1.99074711E+03
    0.7750                     -8.00794692E+05                      9.09537202E-10                      8.93316786E+06                      2.79652389E-08                      1.80798862E+07                     -3.83009664E-08                      6.68430834E-01                     -8.37763094E-01                     -6.67556608E-01                     -3.31168737E-01                      1.09942306E+03                     -6.93745947E+02                     -3.23485121E+03                      2.04122053E+03
    0.8000                     -8.48194871E+05                      1.04549615E-09                      8.93096069E+06                      3.57862397E-08                      1.89383273E+07                     -4.00131317E-08                      6.51113705E-01                     -8.45199648E-01                     -6.73482302E-01                     -3.22589101E-01                      1.07635571E+03                     -6.79190239E+02                     -3.31483982E+03                      2.09169407E+03
    0.8250                     -8.95499382E+05                      9.03086200E-10                      8.92876734E+06                      2.82861627E-08                      1.97953449E+07                     -3.82853607E-08                      6.33796617E-01                     -8.52636185E-01                     -6.79407981E-01                     -3.14009486E-01                      1.05353298E+03                     -6.64788887E+02                     -3.39482824E+03                      2.14216749E+03
    0.8500                     -9.42709971E+05                      6.17778398E-10                      8.92658742E+06                      3.45580555E-08                      2.06510027E+07                     -3.82489044E-08                      6.16479488E-01                     -8.60072739E-01                     -6.85333675E-01                     -3.05429850E-01                      1.03095475E+03                     -6.50541824E+02                     -3.47481685E+03                      2.19264103E+03
    0.8750                     -9.89835097E+05                      7.93690200E-10                      8.92442032E+06                      2.85134115E-08                      2.15056412E+07                     -3.82315707E-08                      5.99162400E-01                     -8.67509276E-01                     -6.91259354E-01                     -2.96850234E-01                      1.00862115E+03                     -6.36449115E+02                     -3.55480527E+03                      2.24311445E+03
    0.9000                     -1.03687643E+06                      7.08742960E-10                      8.92226577E+06                      3.82825068E-08                      2.23593210E+07                     -3.65471677E-08                      5.81845312E-01                     -8.74945812E-01                     -6.97185034E-01                     -2.88270619E-01                      9.86532105E+02                     -6.22510729E+02                     -3.63479369E+03                      2.29358787E+03
    0.9250                     -1.08383419E+06                      9.89442903E-10                      8.92012350E+06                      2.91387793E-08                      2.32120466E+07                     -3.83530013E-08                      5.64528183E-01                     -8.82382367E-01                     -7.03110728E-01                     -2.79690983E-01                      9.64687573E+02                     -6.08726631E+02                     -3.71478229E+03                      2.34406141E+03
    0.9500                     -1.13070832E+06                      7.58507840E-10                      8.91799325E+06                      3.01787461E-08                      2.40638160E+07                     -3.82627957E-08                      5.47211095E-01                     -8.89818903E-01                     -7.09036407E-01                     -2.71111367E-01                      9.43087657E+02                     -5.95096887E+02                     -3.79477071E+03                      2.39453483E+03
    0.9750                     -1.17749917E+06                      8.42154037E-10                      8.91587474E+06                      3.43446845E-08                      2.49146360E+07                     -3.83616749E-08                      5.29893966E-01                     -8.97255458E-01                     -7.14962101E-01                     -2.62531731E-01                      9.21732254E+02                     -5.81621434E+02                     -3.87475932E+03                      2.44500837E+03
    1.0000                     -1.22420669E+06                      8.95876255E-10                      8.91376768E+06                      4.33877980E-08                      2.57645053E+07                     -3.83807569E-08                      5.12576878E-01                     -9.04691994E-01                     -7.20887780E-01                     -2.53952116E-01                      9.00621465E+02                     -5.68300334E+02                     -3.95474774E+03                      2.49548179E+03
    1.0250                     -1.26889660E+06                      7.70271433E-10                      8.91164876E+06                      4.58051351E-08                      2.65671543E+07                     -3.84015736E-08                      4.93997660E-01                     -9.09900899E-01                     -7.25038399E-01                     -2.44747187E-01                      8.75377149E+02                     -5.52370941E+02                     -4.02499829E+03                      2.53981052E+03
    1.0500                     -1.31346298E+06                      7.85558684E-10                      8.90954421E+06                      2.73199218E-08                      2.73683120E+07                     -3.82367749E-08                      4.75418442E-01                     -9.15109803E-01                     -7.29189018E-01                     -2.35542258E-01                      8.50491679E+02                     -5.36667983E+02                     -4.09524883E+03                      2.58413925E+03
    1.0750                     -1.35790622E+06                      7.15465014E-10                      8.90745369E+06                      3.47462730E-08                      2.81679856E+07                     -4.18311219E-08                      4.56839136E-01                     -9.20318733E-01                     -7.33339657E-01                     -2.26337286E-01                      8.25964937E+02                     -5.21191386E+02                     -4.16549971E+03                      2.62846819E+03
    1.1000                     -1.40222627E+06                      6.94214651E-10                      8.90537698E+06                      2.83416739E-08                      2.89661789E+07                     -3.82992249E-08                      4.38259918E-01                     -9.25527637E-01                     -7.37490276E-01                     -2.17132357E-01                      8.01797157E+02                     -5.05941297E+02                     -4.23575025E+03                      2.67279693E+03
    1.1250                     -1.44642366E+06                      8.55435514E-10                      8.90331377E+06                      3.91663484E-08                      2.97629048E+07                     -3.83842264E-08                      4.19680700E-01                     -9.30736542E-01                     -7.41640896E-01                     -2.07927428E-01                      7.77988222E+02                     -4.90917643E+02                     -4.30600080E+03                      2.71712566E+03
    1.1500                     -1.49049871E+06                      8.33480420E-10                      8.90126373E+06                      4.37078544E-08                      3.05581703E+07                     -3.83876958E-08                      4.01101482E-01                     -9.35945446E-01                     -7.45791515E-01                     -1.98722499E-01                      7.54538132E+02                     -4.76120422E+02                     -4.37625134E+03                      2.76145439E+03
    1.1750                     -1.53445203E+06                      7.24734942E-10                      8.89922670E+06                      3.33931887E-08                      3.13519991E+07                     -3.82558568E-08                      3.82522264E-01                     -9.41154351E-01                     -7.49942134E-01                     -1.89517571E-01                      7.31446886E+02                     -4.61549636E+02                     -4.44650189E+03                      2.80578312E+03
    1.2000                     -1.57828420E+06                      9.32522289E-10                      8.89720231E+06                      2.64117940E-08                      3.21444034E+07                     -3.98951705E-08                      3.63942957E-01                     -9.46363280E-01                     -7.54092773E-01                     -1.80312598E-01                      7.08714378E+02                     -4.47205217E+02                     -4.51675277E+03                      2.85011207E+03
    1.2250                     -1.62199529E+06                      8.77065347E-10                      8.89519028E+06                      3.45103506E-08                      3.29353900E+07                     -3.82471832E-08                      3.45363739E-01                     -9.51572185E-01                     -7.58243392E-01                     -1.71107669E-01                      6.86340824E+02                     -4.33087301E+02                     -4.58700331E+03                      2.89444080E+03
    1.2500                     -1.66558617E+06                      7.84691322E-10                      8.89319034E+06                      3.18596931E-08                      3.37249839E+07                     -3.98379246E-08                      3.26784521E-01                     -9.56781089E-01                     -7.62394011E-01                     -1.61902741E-01                      6.64326114E+02                     -4.19195819E+02                     -4.65725386E+03                      2.93876953E+03
    1.2750                     -1.70581859E+06                      7.81818187E-10                      8.89124285E+06                      2.10376207E-08                      3.44442796E+07                     -4.00148664E-08                      3.07400628E-01                     -9.59634075E-01                     -7.64667360E-01                     -1.52299151E-01                      6.39456421E+02                     -4.03502816E+02                     -4.71603668E+03                      2.97586203E+03
    1.3000                     -1.74588751E+06                      9.55778425E-10                      8.88930871E+06                      2.92099030E-08                      3.51615784E+07                     -3.85906584E-08                      2.88016735E-01                     -9.62487060E-01                     -7.66940709E-01                     -1.42695561E-01                      6.15061161E+02                     -3.88109186E+02                     -4.77481951E+03                      3.01295453E+03
    1.3250                     -1.78579395E+06                      9.99634403E-10                      8.88738718E+06                      3.25388373E-08                      3.58768976E+07                     -3.62227609E-08                      2.68632749E-01                     -9.65340059E-01                     -7.69214068E-01                     -1.33091926E-01                      5.91140222E+02                     -3.73014856E+02                     -4.83360262E+03                      3.05004721E+03
    1.3500                     -1.82553821E+06                      7.54929973E-10                      8.88547775E+06                      2.90364306E-08                      3.65902436E+07                     -4.00304789E-08                      2.49248856E-01                     -9.68193045E-01                     -7.71487417E-01                     -1.23488337E-01                      5.67693832E+02                     -3.58219970E+02                     -4.89238545E+03                      3.08713970E+03
    1.3750                     -1.86512134E+06                      7.90979695E-10                      8.88358008E+06                      3.74958097E-08                      3.73016450E+07                     -3.81604470E-08                      2.29864962E-01                     -9.71046031E-01                     -7.73760766E-01                     -1.13884747E-01                      5.44721875E+02                     -3.43724456E+02                     -4.95116828E+03                      3.12423220E+03
    1.4000                     -1.90454392E+06                      8.82323728E-10                      8.88169358E+06                      4.17961892E-08                      3.80111108E+07                     -3.84293292E-08                      2.10481069E-01                     -9.73899016E-01                     -7.76034115E-01                     -1.04281157E-01                      5.22224351E+02                     -3.29528314E+02                     -5.00995110E+03                      3.16132470E+03
    1.4250                     -1.94380690E+06                      7.44467422E-10                      8.87981784E+06                      2.80285563E-08                      3.87186662E+07                     -3.83460082E-08                      1.91097176E-01                     -9.76752002E-01                     -7.78307463E-01                     -9.46775679E-02                      5.00201260E+02                     -3.15631544E+02                     -5.06873393E+03                      3.19841720E+03
    1.4500                     -1.98291128E+06                      9.50736885E-10                      8.87795228E+06                      3.80778094E-08                      3.94243310E+07                     -3.80633025E-08                      1.71713190E-01                     -9.79605001E-01                     -7.80580823E-01                     -8.50739326E-02                      4.78652502E+02                     -3.02034081E+02                     -5.12751704E+03                      3.23550988E+03
    1.4750                     -2.02185753E+06                      9.91069206E-10                      8.87609630E+06                      3.17478034E-08                      4.01281142E+07                     -3.78655440E-08                      1.52329297E-01                     -9.82457986E-01                     -7.82854172E-01                     -7.54703430E-02                      4.57578280E+02                     -2.88736055E+02                     -5.18629987E+03                      3.27260238E+03
    1.5000                     -2.06064699E+06                      1.02359527E-09                      8.87424939E+06                      3.45684638E-08                      4.08300470E+07                     -4.01536443E-08                      1.32945403E-01                     -9.85310972E-01                     -7.85127521E-01                     -6.58667535E-02                      4.36978492E+02                     -2.75737402E+02                     -5.24508270E+03                      3.30969488E+03
    1.5250                     -2.09484514E+06                      8.68066469E-10                      8.87250358E+06                      3.94846701E-08                      4.14404302E+07                     -3.84935139E-08                      1.13234181E-01                     -9.85737794E-01                     -7.85467630E-01                     -5.61009798E-02                      4.14753983E+02                     -2.61713535E+02                     -5.29095042E+03                      3.33863783E+03
    1.5500                     -2.12884452E+06                      7.43166379E-10                      8.87076599E+06                      4.23261472E-08                      4.20483399E+07                     -3.98292510E-08                      9.35229588E-02                     -9.86164617E-01                     -7.85807740E-01                     -4.63352062E-02                      3.93109484E+02                     -2.48055659E+02                     -5.33681815E+03                      3.36758078E+03
    1.5750                     -2.16264639E+06                      8.42804559E-10                      8.86903584E+06                      3.20279613E-08                      4.26537966E+07                     -3.82766735E-08                      7.38116425E-02                     -9.86591441E-01                     -7.86147851E-01                     -3.65693860E-02                      3.72044896E+02                     -2.34763712E+02                     -5.38268609E+03                      3.39652387E+03
    1.6000                     -2.19625176E+06                      9.43960621E-10                      8.86731234E+06                      3.11996308E-08                      4.32568176E+07                     -3.82922860E-08                      5.41004202E-02                     -9.87018264E-01                     -7.86487961E-01                     -2.68036123E-02                      3.51560418E+02                     -2.21837821E+02                     -5.42855381E+03                      3.42546682E+03
    1.6250                     -2.22966231E+06                      6.26723066E-10                      8.86559472E+06                      3.69415655E-08                      4.38574350E+07                     -3.82211623E-08                      3.43891978E-02                     -9.87445086E-01                     -7.86828071E-01                     -1.70378387E-02                      3.31655950E+02                     -2.09277920E+02                     -5.47442154E+03                      3.45440977E+03
    1.6500                     -2.26287941E+06                      5.66604055E-10                      8.86388206E+06                      4.66863747E-08                      4.44556688E+07                     -3.96974120E-08                      1.46779755E-02                     -9.87871909E-01                     -7.87168181E-01                     -7.27206506E-03                      3.12331492E+02                     -1.97084011E+02                     -5.52028926E+03                      3.48335272E+03
    1.6750                     -2.29590493E+06                      8.09140081E-10                      8.86217354E+06                      2.89479598E-08                      4.50515550E+07                     -3.96627176E-08                     -5.03324683E-03                     -9.88298731E-01                     -7.87508290E-01                      2.49370858E-03                      2.93587043E+02                     -1.85256094E+02                     -5.56615699E+03                      3.51229567E+03
    1.7000                     -2.32874060E+06                      5.99401171E-10                      8.86046804E+06                      1.96758628E-08                      4.56451154E+07                     -3.80251386E-08                     -2.47445631E-02                     -9.88725556E-01                     -7.87848402E-01                      1.22595288E-02                      2.75422518E+02                     -1.73794113E+02                     -5.61202493E+03                      3.54123876E+03
    1.7250                     -2.36138819E+06                      7.54496292E-10                      8.85876462E+06                      3.07277860E-08                      4.62363808E+07                     -4.05473723E-08                     -4.44557855E-02                     -9.89152378E-01                     -7.88188511E-01                      2.20253024E-02                      2.57838091E+02                     -1.62698180E+02                     -5.65789266E+03                      3.57018171E+03
    1.7500                     -2.39384984E+06                      8.20361574E-10                      8.85706217E+06                      3.43091227E-08                      4.68253818E+07                     -3.98101691E-08                     -6.41670153E-02                     -9.89579201E-01                     -7.88528621E-01                      3.17910798E-02                      2.40833666E+02                     -1.51968233E+02                     -5.70376040E+03                      3.59912467E+03
    1.7750                     -2.42066097E+06                      8.89045781E-10                      8.85549303E+06                      3.44877992E-08                      4.73043839E+07                     -3.82471832E-08                     -8.37202258E-02                     -9.87569352E-01                     -7.86927106E-01                      4.14785554E-02                      2.23265860E+02                     -1.40882788E+02                     -5.73558345E+03                      3.61920531E+03
    1.8000                     -2.44725072E+06                      9.59573133E-10                      8.85392175E+06                      3.75226979E-08                      4.77805482E+07                     -3.82281012E-08                     -1.03273436E-01                     -9.85559503E-01                     -7.85325590E-01                      5.11660309E-02                      2.06363295E+02                     -1.30217116E+02                     -5.76740650E+03                      3.63928594E+03
    1.8250                     -2.47362167E+06                      7.31673836E-10                      8.85234693E+06                      3.68340127E-08                      4.82539067E+07                     -3.59538788E-08                     -1.22826740E-01                     -9.83549645E-01                     -7.83724067E-01                      6.08535527E-02                      1.90125897E+02                     -1.19971170E+02                     -5.79922970E+03                      3.65936667E+03
    1.8500                     -2.49977654E+06                      8.23180499E-10                      8.85076738E+06                      3.25622561E-08                      4.87245009E+07                     -3.70051212E-08                     -1.42379951E-01                     -9.81539796E-01                     -7.82122551E-01                      7.05410282E-02                      1.74553819E+02                     -1.10145047E+02                     -5.83105275E+03                      3.67944731E+03
    1.8750                     -2.52571825E+06                      6.94268861E-10                      8.84918157E+06                      2.90693904E-08                      4.91923647E+07                     -3.95083272E-08                     -1.61933161E-01                     -9.79529947E-01                     -7.80521035E-01                      8.02285038E-02                      1.59646984E+02                     -1.00738698E+02                     -5.86287580E+03                      3.69952794E+03
    1.9000                     -2.55145024E+06                      9.20270804E-10                      8.84758815E+06                      4.16253189E-08                      4.96575480E+07                     -3.76643703E-08                     -1.81486372E-01                     -9.77520098E-01                     -7.78919520E-01                      8.99159794E-02                      1.45405390E+02                     -9.17521231E+01                     -5.89469885E+03                      3.71960857E+03
    1.9250                     -2.57697575E+06                      5.60857784E-10                      8.84598541E+06                      3.28779758E-08                      5.01200850E+07                     -3.80650372E-08                     -2.01039582E-01                     -9.75510249E-01                     -7.77318004E-01                      9.96034549E-02                      1.31829038E+02                     -8.31853217E+01                     -5.92652190E+03                      3.73968921E+03
    1.9500                     -2.60229879E+06                      7.63549380E-10                      8.84437193E+06                      3.20669926E-08                      5.05800334E+07                     -3.64881736E-08                     -2.20592886E-01                     -9.73500391E-01                     -7.75716481E-01                      1.09290977E-01                      1.18917868E+02                     -7.50382561E+01                     -5.95834510E+03                      3.75976994E+03
    1.9750                     -2.62742287E+06                      9.40003284E-10                      8.84274597E+06                      3.10972821E-08                      5.10374294E+07                     -3.85351473E-08                     -2.40146097E-01                     -9.71490542E-01                     -7.74114965E-01                      1.18978452E-01                      1.06672003E+02                     -6.73110041E+01                     -5.99016815E+03                      3.77985057E+03
    2.0000                     -2.65235245E+06                      9.13006649E-10                      8.84110596E+06                      2.84631045E-08                      5.14923328E+07                     -3.80268733E-08                     -2.59699315E-01                     -9.69480693E-01                     -7.72513449E-01                      1.28665924E-01                      9.50913764E+01                     -6.00035232E+01                     -6.02199118E+03                      3.79993119E+03
    2.0250                     -2.67080675E+06                      7.86480256E-10                      8.83961685E+06                      3.97682974E-08                      5.18224999E+07                     -3.85819848E-08                     -2.78613163E-01                     -9.65083654E-01                     -7.69009744E-01                      1.38036652E-01                      8.37359209E+01                     -5.28381275E+01                     -6.03898637E+03                      3.81065531E+03
    2.0500                     -2.68904209E+06                      6.19892592E-10                      8.83810889E+06                      3.35397728E-08                      5.21497059E+07                     -3.83009596E-08                     -2.97526830E-01                     -9.60686656E-01                     -7.65506072E-01                      1.47407290E-01                      7.31023581E+01                     -4.61282527E+01                     -6.05598139E+03                      3.82137932E+03
    2.0750                     -2.70706357E+06                      9.86515557E-10                      8.83658023E+06                      3.01744092E-08                      5.24740100E+07                     -3.82090193E-08                     -3.16440678E-01                     -9.56289617E-01                     -7.62002366E-01                      1.56778018E-01                      6.31904853E+01                     -3.98737708E+01                     -6.07297657E+03                      3.83210344E+03
    2.1000                     -2.72487620E+06                      1.13244917E-09                      8.83502919E+06                      3.06020186E-08                      5.27954718E+07                     -4.02403805E-08                     -3.35354345E-01                     -9.51892619E-01                     -7.58498694E-01                      1.66148657E-01                      5.40004915E+01                     -3.40748012E+01                     -6.08997160E+03                      3.84282745E+03
    2.1250                     -2.74248554E+06                      1.02587210E-09                      8.83345384E+06                      1.86220183E-08                      5.31141552E+07                     -3.82437138E-08                     -3.54268193E-01                     -9.47495580E-01                     -7.54994988E-01                      1.75519384E-01                      4.55322015E+01                     -2.87312332E+01                     -6.10696678E+03                      3.85355157E+03
    2.1500                     -2.75989727E+06                      9.11976657E-10                      8.83185255E+06                      3.20930134E-08                      5.34301302E+07                     -4.03687500E-08                     -3.73182041E-01                     -9.43098540E-01                     -7.51491283E-01                      1.84890112E-01                      3.77857063E+01                     -2.38431243E+01                     -6.12396197E+03                      3.86427569E+03
    2.1750                     -2.77711690E+06                      1.21593274E-09                      8.83022350E+06                      3.62242574E-08                      5.37434582E+07                     -3.79817705E-08                     -3.92095709E-01                     -9.38701543E-01                     -7.47987611E-01                      1.94260751E-01                      3.07610695E+01                     -1.94105145E+01                     -6.14095699E+03                      3.87499970E+03
    2.2000                     -2.79415097E+06                      9.20541855E-10                      8.82856504E+06                      3.76554042E-08                      5.40542224E+07                     -3.94302646E-08                     -4.11009556E-01                     -9.34304503E-01                     -7.44483905E-01                      2.03631479E-01                      2.44581570E+01                     -1.54333195E+01                     -6.15795217E+03                      3.88572382E+03
    2.2250                     -2.81100514E+06                      7.56285225E-10                      8.82687540E+06                      3.52909761E-08                      5.43624845E+07                     -3.83807569E-08                     -4.29923224E-01                     -9.29907506E-01                     -7.40980233E-01                      2.13002117E-01                      1.88770892E+01                     -1.19116149E+01                     -6.17494720E+03                      3.89644783E+03
    2.2500                     -2.82768627E+06                      9.63096790E-10                      8.82515311E+06                      3.08665639E-08                      5.46683356E+07                     -3.84761667E-08                     -4.48837072E-01                     -9.25510466E-01                     -7.37476528E-01                      2.22372845E-01                      1.40177596E+01                     -8.84533374E+00                     -6.19194238E+03                      3.90717195E+03
    2.2750                     -2.83733968E+06                      7.92822839E-10                      8.82359647E+06                      2.09812422E-08                      5.48391468E+07                     -3.85542293E-08                     -4.66645741E-01                     -9.18834488E-01                     -7.32156906E-01                      2.31196001E-01                      9.82234964E+00                     -6.19799194E+00                     -6.19369085E+03                      3.90827525E+03
    2.3000                     -2.84680720E+06                      8.30065183E-10                      8.82200324E+06                      2.23716231E-08                      5.50072298E+07                     -3.84362681E-08                     -4.84454240E-01                     -9.12158573E-01                     -7.26837335E-01                      2.40019072E-01                      6.37108870E+00                     -4.02021490E+00                     -6.19543930E+03                      3.90937853E+03
    2.3250                     -2.85609530E+06                      6.46021864E-10                      8.82037182E+06                      2.18225831E-08                      5.51726638E+07                     -3.84102472E-08                     -5.02262909E-01                     -9.05482595E-01                     -7.21517714E-01                      2.48842228E-01                      3.66391092E+00                     -2.31196110E+00                     -6.19718776E+03                      3.91048183E+03
    2.3500                     -2.86521073E+06                      6.82451057E-10                      8.81870116E+06                      2.84206038E-08                      5.53355423E+07                     -3.73867604E-08                     -5.20071409E-01                     -8.98806681E-01                     -7.16198143E-01                      2.57665299E-01                      1.70086792E+00                     -1.07326312E+00                     -6.19893621E+03                      3.91158512E+03
    2.3750                     -2.87416007E+06                      8.10874805E-10                      8.81698988E+06                      3.50272982E-08                      5.54959505E+07                     -3.98535371E-08                     -5.37880078E-01                     -8.92130703E-01                     -7.10878521E-01                      2.66488455E-01                      4.81922271E-01                     -3.04097335E-01                     -6.20068468E+03                      3.91268842E+03
    2.4000                     -2.88295010E+06                      6.88956271E-10                      8.81523700E+06                      2.72514002E-08                      5.56539847E+07                     -3.80320775E-08                     -5.55688747E-01                     -8.85454725E-01                     -7.05558900E-01                      2.75311611E-01                      7.09623642E-03                     -4.47778971E-03                     -6.20243315E+03                      3.91379171E+03
    2.4250                     -2.89158721E+06                      5.38685849E-10                      8.81344141E+06                      1.99707658E-08                      5.58097320E+07                     -3.85542293E-08                     -5.73497247E-01                     -8.78778810E-01                     -7.00239329E-01                      2.84134683E-01                     -2.76383701E-01                      1.74400628E-01                     -6.20418160E+03                      3.91489500E+03
    2.4500                     -2.90007827E+06                      1.00039334E-09                      8.81160230E+06                      2.71074181E-08                      5.59632952E+07                     -3.60050531E-08                     -5.91305916E-01                     -8.72102832E-01                     -6.94919707E-01                      2.92957838E-01                     -1.28978980E+00                      8.13869092E-01                     -6.20593006E+03                      3.91599830E+03
    2.4750                     -2.90842970E+06                      6.68627480E-10                      8.80971893E+06                      3.72434074E-08                      5.61147696E+07                     -3.78880954E-08                     -6.09114415E-01                     -8.65426918E-01                     -6.89600136E-01                      3.01780910E-01                     -3.04729520E+00                      1.92287098E+00                     -6.20767851E+03                      3.91710159E+03
    2.5000                     -2.91664795E+06                      9.47321648E-10                      8.80779044E+06                      2.73155850E-08                      5.62642519E+07                     -3.85160653E-08                     -6.26923084E-01                     -8.58750939E-01                     -6.84280515E-01                      3.10604066E-01                     -5.54893344E+00                      3.50142746E+00                     -6.20942698E+03                      3.91820489E+03
    2.5250                     -2.91766720E+06                      7.68807761E-10                      8.80605743E+06                      4.14952147E-08                      5.62742732E+07                     -4.01180825E-08                     -6.43188056E-01                     -8.49960431E-01                     -6.77275953E-01                      3.18662415E-01                     -8.76032156E+00                      5.52784256E+00                     -6.19588569E+03                      3.90966021E+03
    2.5500                     -2.91877364E+06                      1.03172679E-09                      8.80427848E+06                      3.74394312E-08                      5.62843617E+07                     -4.08414622E-08                     -6.59452872E-01                     -8.41170006E-01                     -6.70271458E-01                      3.26720687E-01                     -1.27017032E+01                      8.01489023E+00                     -6.18234453E+03                      3.90111561E+03
    2.5750                     -2.91997377E+06                      7.37420108E-10                      8.80245332E+06                      3.47384667E-08                      5.62946257E+07                     -3.80771803E-08                     -6.75717844E-01                     -8.32379497E-01                     -6.63266896E-01                      3.34779037E-01                     -1.73731536E+01                      1.09626179E+01                     -6.16880324E+03                      3.89257094E+03
    2.6000                     -2.92127360E+06                      9.55019484E-10                      8.80058160E+06                      2.99818549E-08                      5.63051657E+07                     -4.05899273E-08                     -6.91982660E-01                     -8.23589072E-01                     -6.56262401E-01                      3.42837309E-01                     -2.27745836E+01                      1.43709693E+01                     -6.15526207E+03                      3.88402634E+03
    2.6250                     -2.92267925E+06                      7.80246093E-10                      8.79866313E+06                      2.77293165E-08                      5.63160883E+07                     -3.87233648E-08                     -7.08247632E-01                     -8.14798564E-01                     -6.49257839E-01                      3.50895658E-01                     -2.89060962E+01                      1.82400095E+01                     -6.14172078E+03                      3.87548166E+03
    2.6500                     -2.92419697E+06                      6.96003585E-10                      8.79669799E+06                      3.03201260E-08                      5.63275046E+07                     -3.75706410E-08                     -7.24512603E-01                     -8.06008055E-01                     -6.42253277E-01                      3.58954007E-01                     -3.57676434E+01                      2.25697082E+01                     -6.12817949E+03                      3.86693699E+03
    2.6750                     -2.92583238E+06                      4.86264674E-10                      8.79468599E+06                      3.41061600E-08                      5.63395151E+07                     -4.01163477E-08                     -7.40777420E-01                     -7.97217630E-01                     -6.35248782E-01                      3.67012280E-01                     -4.33591494E+01                      2.73600175E+01                     -6.11463833E+03                      3.85839239E+03
    2.7000                     -2.92759165E+06                      9.52905289E-10                      8.79262738E+06                      3.28172605E-08                      5.63522331E+07                     -3.85039223E-08                     -7.57042391E-01                     -7.88427122E-01                     -6.28244220E-01                      3.75070629E-01                     -5.16807588E+01                      3.26110288E+01                     -6.10109704E+03                      3.84984771E+03
    2.7250                     -2.92948045E+06                      7.33354349E-10                      8.79052237E+06                      2.89765827E-08                      5.63657660E+07                     -3.79488108E-08                     -7.73307208E-01                     -7.79636697E-01                     -6.21239725E-01                      3.83128901E-01                     -6.07323131E+01                      3.83226418E+01                     -6.08755588E+03                      3.84130312E+03
    2.7500                     -2.93150443E+06                      7.77481378E-10                      8.78837117E+06                      3.86086348E-08                      5.63802207E+07                     -3.81543755E-08                     -7.89572179E-01                     -7.70846188E-01                     -6.14235163E-01                      3.91187251E-01                     -7.05139848E+01                      4.44949656E+01                     -6.07401459E+03                      3.83275844E+03
    2.7750                     -2.92634115E+06                      9.89280272E-10                      8.78646822E+06                      2.59633680E-08                      5.62548478E+07                     -3.77874815E-08                     -8.03892935E-01                     -7.60157604E-01                     -6.05718145E-01                      3.98282358E-01                     -8.06538620E+01                      5.08933203E+01                     -6.04551699E+03                      3.81477619E+03
    2.8000                     -2.92130095E+06                      6.49789467E-10                      8.78452151E+06                      3.20531148E-08                      5.61302305E+07                     -3.77449808E-08                     -8.18213555E-01                     -7.49469122E-01                     -5.97201209E-01                      4.05377398E-01                     -9.14745515E+01                      5.77212738E+01                     -6.01701966E+03                      3.79679412E+03
    2.8250                     -2.91638948E+06                      7.52788673E-10                      8.78253172E+06                      2.75159455E-08                      5.60064798E+07                     -3.83408583E-08                     -8.32534311E-01                     -7.38780538E-01                     -5.88684191E-01                      4.12472506E-01                     -1.02976260E+02                      6.49789562E+01                     -5.98852205E+03                      3.77881187E+03
    2.8500                     -2.91161244E+06                      8.65545699E-10                      8.78049957E+06                      3.93545659E-08                      5.58837086E+07                     -3.77484502E-08                     -8.46854930E-01                     -7.28092056E-01                     -5.80167255E-01                      4.19567546E-01                     -1.15158767E+02                      7.26662292E+01                     -5.96002472E+03                      3.76082980E+03
    2.8750                     -2.90697490E+06                      8.04423802E-10                      8.77842558E+06                      3.27747597E-08                      5.57620191E+07                     -3.74908438E-08                     -8.61175686E-01                     -7.17403471E-01                     -5.71650237E-01                      4.26662654E-01                     -1.28022306E+02                      8.07832394E+01                     -5.93152712E+03                      3.74284755E+03
    2.9000                     -2.90248270E+06                      1.03367835E-09                      8.77631084E+06                      2.90520432E-08                      5.56415284E+07                     -3.91986790E-08                     -8.75496442E-01                     -7.06714887E-01                     -5.63133219E-01                      4.33757761E-01                     -1.41566764E+02                      8.93299155E+01                     -5.90302952E+03                      3.72486530E+03
    2.9250                     -2.89814112E+06                      9.29974413E-10                      8.77415617E+06                      2.88265291E-08                      5.55223439E+07                     -3.80459553E-08                     -8.89817062E-01                     -6.96026405E-01                     -5.54616283E-01                      4.40852801E-01                     -1.55792002E+02                      9.83061699E+01                     -5.87453218E+03                      3.70688323E+03
    2.9500                     -2.89395552E+06                      5.94983047E-10                      8.77196254E+06                      2.77232450E-08                      5.54045725E+07                     -3.75879883E-08                     -9.04137818E-01                     -6.85337821E-01                     -5.46099265E-01                      4.47947909E-01                     -1.70698291E+02                      1.07712174E+02                     -5.84603458E+03                      3.68890098E+03
    2.9750                     -2.88993147E+06                      7.73225884E-10                      8.76973115E+06                      2.28790297E-08                      5.52883262E+07                     -3.80268733E-08                     -9.18458437E-01                     -6.74649339E-01                     -5.37582329E-01                      4.55042949E-01                     -1.86285347E+02                      1.17547748E+02                     -5.81753725E+03                      3.67091890E+03
    3.0000                     -2.88607433E+06                      7.59944408E-10                      8.76746322E+06                      2.22788153E-08                      5.51737119E+07                     -4.26247579E-08                     -9.32779193E-01                     -6.63960755E-01                     -5.29065311E-01                      4.62138057E-01                     -2.02553467E+02                      1.27813079E+02                     -5.78903965E+03                      3.65293666E+03
    3.0250                     -2.87503973E+06                      7.51026845E-10                      8.76551674E+06                      2.26326989E-08                      5.49209341E+07                     -3.78525336E-08                     -9.44803165E-01                     -6.51637257E-01                     -5.19245563E-01                      4.68095230E-01                     -2.18465364E+02                      1.37853631E+02                     -5.74628755E+03                      3.62595969E+03
    3.0500                     -2.86415442E+06                      5.38387694E-10                      8.76353907E+06                      3.67828383E-08                      5.46695886E+07                     -3.73867604E-08                     -9.56827022E-01                     -6.39313876E-01                     -5.09425909E-01                      4.74052346E-01                     -2.34978687E+02                      1.48273688E+02                     -5.70353586E+03                      3.59898299E+03
    3.0750                     -2.85342648E+06                      9.96083641E-10                      8.76153294E+06                      2.68021068E-08                      5.44197837E+07                     -4.01059394E-08                     -9.68850993E-01                     -6.26990378E-01                     -4.99606161E-01                      4.80009519E-01                     -2.52093750E+02                      1.59073449E+02                     -5.66078376E+03                      3.57200603E+03
    3.1000                     -2.84286773E+06                      1.10369071E-09                      8.75950259E+06                      2.59876541E-08                      5.41716379E+07                     -4.03392597E-08                     -9.80874850E-01                     -6.14666998E-01                     -4.89786507E-01                      4.85966636E-01                     -2.69810227E+02                      1.70252707E+02                     -5.61803207E+03                      3.54502932E+03
    3.1250                     -2.83248955E+06                      8.57387078E-10                      8.75745224E+06                      4.32325402E-08                      5.39252548E+07                     -3.90802841E-08                     -9.92898822E-01                     -6.02343500E-01                     -4.79966760E-01                      4.91923809E-01                     -2.88128456E+02                      1.81811676E+02                     -5.57527997E+03                      3.51805236E+03
    3.1500                     -2.82229822E+06                      6.01732206E-10                      8.75538397E+06                      3.17044354E-08                      5.36807413E+07                     -3.79861073E-08                     -1.00492279E+00                     -5.90020002E-01                     -4.70147012E-01                      4.97880982E-01                     -3.07048271E+02                      1.93750251E+02                     -5.53252788E+03                      3.49107540E+03
    3.1750                     -2.81229979E+06                      7.27987549E-10                      8.75329974E+06                      3.60013454E-08                      5.34382024E+07                     -3.81183800E-08                     -1.01694665E+00                     -5.77696621E-01                     -4.60327358E-01                      5.03838099E-01                     -3.26569483E+02                      2.06068313E+02                     -5.48977619E+03                      3.46409869E+03
    3.2000                     -2.80250048E+06                      6.90880729E-10                      8.75120172E+06                      3.00816015E-08                      5.31977362E+07                     -3.98452972E-08                     -1.02897062E+00                     -5.65373123E-01                     -4.50507610E-01                      5.09795272E-01                     -3.46692464E+02                      2.18766097E+02                     -5.44702409E+03                      3.43712173E+03
    3.2250                     -2.79290649E+06                      7.65365419E-10                      8.74909197E+06                      1.88310524E-08                      5.29594504E+07                     -3.94489129E-08                     -1.04099448E+00                     -5.53049743E-01                     -4.40687956E-01                      5.15752388E-01                     -3.67416830E+02                      2.31843361E+02                     -5.40427240E+03                      3.41014503E+03
    3.2500                     -2.78352385E+06                      8.38440645E-10                      8.74697256E+06                      2.42572675E-08                      5.27234474E+07                     -3.85884900E-08                     -1.05301845E+00                     -5.40726244E-01                     -4.30868208E-01                      5.21709561E-01                     -3.88742976E+02                      2.45300353E+02                     -5.36152030E+03                      3.38316806E+03
    3.2750                     -2.76709933E+06                      7.46906877E-10                      8.74526614E+06                      3.44912686E-08                      5.23537626E+07                     -3.83026943E-08                     -1.06244950E+00                     -5.27071299E-01                     -4.19987494E-01                      5.26382095E-01                     -4.08705342E+02                      2.57896787E+02                     -5.30556610E+03                      3.34786045E+03
    3.3000                     -2.75086352E+06                      1.11358405E-09                      8.74355600E+06                      6.88314450E-09                      5.19861366E+07                     -3.88647448E-08                     -1.07188047E+00                     -5.13416483E-01                     -4.09106883E-01                      5.31054583E-01                     -4.29167302E+02                      2.70808470E+02                     -5.24961243E+03                      3.31255318E+03
    3.3250                     -2.73482042E+06                      8.95523889E-10                      8.74184274E+06                      4.38605101E-08                      5.16206884E+07                     -4.12248360E-08                     -1.08131152E+00                     -4.99761537E-01                     -3.98226169E-01                      5.35727116E-01                     -4.50129247E+02                      2.84035648E+02                     -5.19365823E+03                      3.27724557E+03
    3.3500                     -2.71897999E+06                      7.24585864E-10                      8.74012660E+06                      2.54177975E-08                      5.12577978E+07                     -3.73642089E-08                     -1.09074248E+00                     -4.86106722E-01                     -3.87345558E-01                      5.40399605E-01                     -4.71590778E+02                      2.97578069E+02                     -5.13770455E+03                      3.24193829E+03
    3.3750                     -2.70336070E+06                      9.04888686E-10                      8.73840828E+06                      2.11486430E-08                      5.08981903E+07                     -3.87290026E-08                     -1.10017353E+00                     -4.72451776E-01                     -3.76464844E-01                      5.45072138E-01                     -4.93552303E+02                      3.11435991E+02                     -5.08175035E+03                      3.20663068E+03
    3.4000                     -2.68796641E+06                      9.77706414E-10                      8.73668878E+06                      2.04217939E-08                      5.05420026E+07                     -3.68914968E-08                     -1.10960459E+00                     -4.58796831E-01                     -3.65584129E-01                      5.49744672E-01                     -5.16013620E+02                      3.25609286E+02                     -5.02579615E+03                      3.17132307E+03
    3.4250                     -2.67279969E+06                      7.95885710E-10                      8.73496919E+06                      2.30290833E-08                      5.01893163E+07                     -3.86041026E-08                     -1.11903555E+00                     -4.45142015E-01                     -3.54703519E-01                      5.54417160E-01                     -5.38974508E+02                      3.40097816E+02                     -4.96984248E+03                      3.13601579E+03
    3.4500                     -2.65786211E+06                      9.76473134E-10                      8.73325048E+06                      3.45025443E-08                      4.98401796E+07                     -3.87600108E-08                     -1.12846660E+00                     -4.31487069E-01                     -3.43822804E-01                      5.59089693E-01                     -5.62435405E+02                      3.54901855E+02                     -4.91388827E+03                      3.10070818E+03
    3.4750                     -2.64315537E+06                      8.64441168E-10                      8.73153370E+06                      4.24120160E-08                      4.94946385E+07                     -3.82623620E-08                     -1.13789756E+00                     -4.17832254E-01                     -3.32942194E-01                      5.63762182E-01                     -5.86395863E+02                      3.70021122E+02                     -4.85793460E+03                      3.06540091E+03
    3.5000                     -2.62868029E+06                      6.53618056E-10                      8.72981966E+06                      2.95481741E-08                      4.91527143E+07                     -3.79256088E-08                     -1.14732862E+00                     -4.04177308E-01                     -3.22061479E-01                      5.68434715E-01                     -6.10856340E+02                      3.85455905E+02                     -4.80198040E+03                      3.03009330E+03
    3.5250                     -2.60736669E+06                      7.67662572E-10                      8.72858114E+06                      2.98135868E-08                      4.86846304E+07                     -3.78782292E-08                     -1.15393456E+00                     -3.89527137E-01                     -3.10387756E-01                      5.71707583E-01                     -6.32751211E+02                      3.99271768E+02                     -4.73420226E+03                      2.98732468E+03
    3.5500                     -2.58624604E+06                      7.52253349E-10                      8.72734809E+06                      1.44560798E-08                      4.82196707E+07                     -3.66030990E-08                     -1.16054045E+00                     -3.74877105E-01                     -2.98714144E-01                      5.74980420E-01                     -6.55031377E+02                      4.13330755E+02                     -4.66642477E+03                      2.94455646E+03
    3.5750                     -2.56531857E+06                      9.28212585E-10                      8.72612111E+06                      2.47854908E-08                      4.77578396E+07                     -3.87664076E-08                     -1.16714640E+00                     -3.60226934E-01                     -2.87040421E-01                      5.78253287E-01                     -6.77697264E+02                      4.27633136E+02                     -4.59864664E+03                      2.90178785E+03
    3.6000                     -2.54458518E+06                      7.76514066E-10                      8.72490067E+06                      2.93608239E-08                      4.72991548E+07                     -3.47497638E-08                     -1.17375228E+00                     -3.45576902E-01                     -2.75366810E-01                      5.81526124E-01                     -7.00748438E+02                      4.42178636E+02                     -4.53086915E+03                      2.85901963E+03
    3.6250                     -2.52404590E+06                      9.95445825E-10                      8.72368716E+06                      3.20262266E-08                      4.68436155E+07                     -3.93836439E-08                     -1.18035823E+00                     -3.30926731E-01                     -2.63693087E-01                      5.84798992E-01                     -7.24185340E+02                      4.56967534E+02                     -4.46309102E+03                      2.81625101E+03
    3.6500                     -2.50370136E+06                      9.20754777E-10                      8.72248110E+06                      4.60133019E-08                      4.63912342E+07                     -3.99453691E-08                     -1.18696418E+00                     -3.16276560E-01                     -2.52019364E-01                      5.88071859E-01                     -7.48007751E+02                      4.71999693E+02                     -4.39531288E+03                      2.77348240E+03
    3.6750                     -2.48355210E+06                      5.20403490E-10                      8.72128282E+06                      2.72999724E-08                      4.59420206E+07                     -4.04117928E-08                     -1.19357006E+00                     -3.01626528E-01                     -2.40345752E-01                      5.91344696E-01                     -7.72215439E+02                      4.87274964E+02                     -4.32753539E+03                      2.73071418E+03
    3.7000                     -2.46359804E+06                      7.12537668E-10                      8.72009262E+06                      2.65904705E-08                      4.54959710E+07                     -3.89271948E-08                     -1.20017601E+00                     -2.86976357E-01                     -2.28672029E-01                      5.94617564E-01                     -7.96808866E+02                      5.02793640E+02                     -4.25975726E+03                      2.68794556E+03
    3.7250                     -2.44383990E+06                      5.14318406E-10                      8.71891095E+06                      3.50351044E-08                      4.50531000E+07                     -3.90687916E-08                     -1.20678190E+00                     -2.72326326E-01                     -2.16998418E-01                      5.97890400E-01                     -8.21787562E+02                      5.18555424E+02                     -4.19197977E+03                      2.64517735E+03
    3.7500                     -2.42427754E+06                      9.47863749E-10                      8.71773805E+06                      2.57161699E-08                      4.46134031E+07                     -4.00640892E-08                     -1.21338785E+00                     -2.57676154E-01                     -2.05324695E-01                      6.01163268E-01                     -8.47152004E+02                      5.34560617E+02                     -4.12420164E+03                      2.60240873E+03
    3.7750                     -2.39812919E+06                      9.84089654E-10                      8.71707803E+06                      2.55132073E-08                      4.40553764E+07                     -3.81453766E-08                     -1.21700599E+00                     -2.42391513E-01                     -1.93145398E-01                      6.02955861E-01                     -8.68672146E+02                      5.48140023E+02                     -4.04626832E+03                      2.55323210E+03
    3.8000                     -2.37213407E+06                      7.78328411E-10                      8.71642716E+06                      2.36752677E-08                      4.34999472E+07                     -3.96026528E-08                     -1.22062411E+00                     -2.27107018E-01                     -1.80966217E-01                      6.04748436E-01                     -8.90461998E+02                      5.61889618E+02                     -3.96833575E+03                      2.50405594E+03
[...]
   11.5500                     -2.12884473E+06                      8.37708809E-10                      8.87076597E+06                      3.15448408E-08                      4.20483437E+07                     -3.83720833E-08                      9.35228721E-02                     -9.86164621E-01                     -7.85807743E-01                     -4.63351488E-02                      3.93109392E+02                     -2.48055601E+02                     -5.33681842E+03                      3.36758095E+03
   11.5750                     -2.16264596E+06                      9.74535123E-10                      8.86903584E+06                      4.86240608E-08                      4.26537889E+07                     -3.84258597E-08                      7.38119303E-02                     -9.86591437E-01                     -7.86147848E-01                     -3.65695141E-02                      3.72045200E+02                     -2.34763905E+02                     -5.38268550E+03                      3.39652349E+03
   11.6000                     -2.19625214E+06                      7.40889555E-10                      8.86731230E+06                      2.97624124E-08                      4.32568243E+07                     -3.82281012E-08                      5.41002365E-02                     -9.87018270E-01                     -7.86487966E-01                     -2.68035069E-02                      3.51560232E+02                     -2.21837703E+02                     -5.42855432E+03                      3.42546714E+03
   11.6250                     -2.22966220E+06                      9.42713789E-10                      8.86559472E+06                      2.92159745E-08                      4.38574331E+07                     -3.75480896E-08                      3.43892947E-02                     -9.87445086E-01                     -7.86828071E-01                     -1.70378722E-02                      3.31656048E+02                     -2.09277982E+02                     -5.47442139E+03                      3.45440968E+03
   11.6500                     -2.26287883E+06                      7.26469666E-10                      8.86388208E+06                      2.42624716E-08                      4.44556585E+07                     -3.84328528E-08                      1.46783528E-02                     -9.87871903E-01                     -7.87168176E-01                     -7.27223754E-03                      3.12331858E+02                     -1.97084242E+02                     -5.52028846E+03                      3.48335221E+03
   11.6750                     -2.29590514E+06                      7.89624442E-10                      8.86217352E+06                      3.58443529E-08                      4.50515590E+07                     -3.94372035E-08                     -5.03334093E-03                     -9.88298735E-01                     -7.87508294E-01                      2.49376968E-03                      2.93586956E+02                     -1.85256039E+02                     -5.56615728E+03                      3.51229586E+03
   11.7000                     -2.32874019E+06                      8.94575213E-10                      8.86046805E+06                      3.20730641E-08                      4.56451081E+07                     -3.86305571E-08                     -2.47442828E-02                     -9.88725552E-01                     -7.87848398E-01                      1.22594044E-02                      2.75422774E+02                     -1.73794275E+02                     -5.61202435E+03                      3.54123840E+03
   11.7250                     -2.36138856E+06                      8.98640971E-10                      8.85876460E+06                      3.39274835E-08                      4.62363876E+07                     -3.85316778E-08                     -4.44559766E-02                     -9.89152384E-01                     -7.88188516E-01                      2.20254116E-02                      2.57837924E+02                     -1.62698075E+02                     -5.65789318E+03                      3.57018204E+03
   11.7500                     -2.39384974E+06                      6.95298853E-10                      8.85706217E+06                      2.88742340E-08                      4.68253802E+07                     -4.06948238E-08                     -6.41669184E-02                     -9.89579201E-01                     -7.88528621E-01                      3.17910463E-02                      2.40833750E+02                     -1.51968286E+02                     -5.70376025E+03                      3.59912458E+03
   11.7750                     -2.42066052E+06                      8.19711053E-10                      8.85549306E+06                      1.96151475E-08                      4.73043760E+07                     -4.04658945E-08                     -8.37198716E-02                     -9.87569381E-01                     -7.86927134E-01                      4.14783952E-02                      2.23266168E+02                     -1.40882982E+02                     -5.73558294E+03                      3.61920499E+03
   11.8000                     -2.44725093E+06                      1.06333128E-09                      8.85392173E+06                      3.93085957E-08                      4.77805521E+07                     -3.99298650E-08                     -1.03273571E-01                     -9.85559484E-01                     -7.85325586E-01                      5.11661136E-02                      2.06363179E+02                     -1.30217042E+02                     -5.76740684E+03                      3.63928616E+03
   11.8250                     -2.47362140E+06                      9.18915551E-10                      8.85234695E+06                      3.67091126E-08                      4.82539020E+07                     -4.21017388E-08                     -1.22826524E-01                     -9.83549664E-01                     -7.83724100E-01                      6.08534625E-02                      1.90126071E+02                     -1.19971280E+02                     -5.79922953E+03                      3.65936657E+03
   11.8500                     -2.49977692E+06                      9.55182114E-10                      8.85076736E+06                      3.09541675E-08                      4.87245079E+07                     -4.00270095E-08                     -1.42380223E-01                     -9.81539767E-01                     -7.82122552E-01                      7.05411810E-02                      1.74553607E+02                     -1.10144913E+02                     -5.83105343E+03                      3.67944774E+03
   11.8750                     -2.52571828E+06                      8.39714583E-10                      8.84918158E+06                      3.92426762E-08                      4.91923655E+07                     -3.86721904E-08                     -1.61933176E-01                     -9.79529947E-01                     -7.80521065E-01                      8.02285299E-02                      1.59646973E+02                     -1.00738692E+02                     -5.86287612E+03                      3.69952815E+03
   11.9000                     -2.55144993E+06                      1.09569472E-09                      8.84758817E+06                      2.85272893E-08                      4.96575426E+07                     -3.84691736E-08                     -1.81486129E-01                     -9.77520127E-01                     -7.78919578E-01                      8.99158788E-02                      1.45405564E+02                     -9.17522330E+01                     -5.89469881E+03                      3.71960855E+03
   11.9250                     -2.57697606E+06                      8.25511534E-10                      8.84598540E+06                      2.55938719E-08                      5.01200910E+07                     -3.58706120E-08                     -2.01039829E-01                     -9.75510230E-01                     -7.77318030E-01                      9.96035972E-02                      1.31828874E+02                     -8.31852181E+01                     -5.92652272E+03                      3.73968972E+03
   11.9500                     -2.60229865E+06                      7.65500944E-10                      8.84437195E+06                      4.44546529E-08                      5.05800311E+07                     -3.78429926E-08                     -2.20592782E-01                     -9.73500410E-01                     -7.75716543E-01                      1.09290946E-01                      1.18917939E+02                     -7.50383006E+01                     -5.95834541E+03                      3.75977013E+03
   11.9750                     -2.62742335E+06                      8.59392852E-10                      8.84274595E+06                      4.03954000E-08                      5.10374385E+07                     -3.88543364E-08                     -2.40146481E-01                     -9.71490513E-01                     -7.74114996E-01                      1.18978665E-01                      1.06671773E+02                     -6.73108589E+01                     -5.99016931E+03                      3.77985130E+03
   12.0000                     -2.65235259E+06                      8.54893413E-10                      8.84110597E+06                      3.25726645E-08                      5.14923358E+07                     -3.79609538E-08                     -2.59699434E-01                     -9.69480693E-01                     -7.72513509E-01                      1.28666013E-01                      9.50913120E+01                     -6.00034826E+01                     -6.02199200E+03                      3.79993171E+03
   12.0250                     -2.67080654E+06                      7.39534302E-10                      8.83961688E+06                      4.43340896E-08                      5.18224966E+07                     -3.70866532E-08                     -2.78612927E-01                     -9.65083738E-01                     -7.69009876E-01                      1.38036554E-01                      8.37360671E+01                     -5.28382198E+01                     -6.03898686E+03                      3.81065562E+03
   12.0500                     -2.68904240E+06                      1.14144805E-09                      8.83810888E+06                      2.59503576E-08                      5.21497120E+07                     -3.67240960E-08                     -2.97527142E-01                     -9.60686614E-01                     -7.65506110E-01                      1.47407451E-01                      7.31021980E+01                     -4.61281517E+01                     -6.05598237E+03                      3.82137995E+03
   12.0750                     -2.70706354E+06                      7.33571190E-10                      8.83658024E+06                      3.67767668E-08                      5.24740099E+07                     -3.96800648E-08                     -3.16440635E-01                     -9.56289659E-01                     -7.62002477E-01                      1.56777991E-01                      6.31905160E+01                     -3.98737902E+01                     -6.07297724E+03                      3.83210386E+03
   12.1000                     -2.72487667E+06                      8.71481706E-10                      8.83502915E+06                      1.36815258E-08                      5.27954809E+07                     -3.82679999E-08                     -3.35354849E-01                     -9.51892535E-01                     -7.58498711E-01                      1.66148889E-01                      5.40002649E+01                     -3.40746582E+01                     -6.08997275E+03                      3.84282818E+03
   12.1250                     -2.74248568E+06                      8.95063103E-10                      8.83345383E+06                      3.05898755E-08                      5.31141581E+07                     -3.88092336E-08                     -3.54268342E-01                     -9.47495580E-01                     -7.54995078E-01                      1.75519429E-01                      4.55321458E+01                     -2.87311980E+01                     -6.10696761E+03                      3.85355209E+03
   12.1500                     -2.75989708E+06                      5.67091946E-10                      8.83185257E+06                      2.86010151E-08                      5.34301271E+07                     -3.99281302E-08                     -3.73181835E-01                     -9.43098624E-01                     -7.51491445E-01                      1.84889969E-01                      3.77857944E+01                     -2.38431798E+01                     -6.12396247E+03                      3.86427601E+03
   12.1750                     -2.77711720E+06                      7.28854910E-10                      8.83022347E+06                      3.92279311E-08                      5.37434640E+07                     -3.79245246E-08                     -3.92096050E-01                     -9.38701501E-01                     -7.47987679E-01                      1.94260867E-01                      3.07609565E+01                     -1.94104432E+01                     -6.14095799E+03                      3.87500033E+03
   12.2000                     -2.79415095E+06                      8.30661494E-10                      8.82856504E+06                      3.51183712E-08                      5.40542223E+07                     -3.80303428E-08                     -4.11009543E-01                     -9.34304545E-01                     -7.44484046E-01                      2.03631407E-01                      2.44581680E+01                     -1.54333264E+01                     -6.15795285E+03                      3.88572424E+03
   12.2250                     -2.81100559E+06                      7.57261007E-10                      8.82687534E+06                      4.16730238E-08                      5.43624932E+07                     -3.77545217E-08                     -4.29923757E-01                     -9.29907422E-01                     -7.40980280E-01                      2.13002305E-01                      1.88769480E+01                     -1.19115259E+01                     -6.17494836E+03                      3.89644856E+03
   12.2500                     -2.82768640E+06                      6.21789946E-10                      8.82515308E+06                      2.96366450E-08                      5.46683385E+07                     -3.70450198E-08                     -4.48837250E-01                     -9.25510466E-01                     -7.37476647E-01                      2.22372845E-01                      1.40177225E+01                     -8.84531034E+00                     -6.19194322E+03                      3.90717248E+03
   12.2750                     -2.83733963E+06                      8.96852037E-10                      8.82359648E+06                      3.16367811E-08                      5.48391463E+07                     -3.65246028E-08                     -4.66645568E-01                     -9.18834615E-01                     -7.32157115E-01                      2.31195838E-01                      9.82239358E+00                     -6.19801967E+00                     -6.19369160E+03                      3.90827572E+03
   12.3000                     -2.84680742E+06                      1.02316159E-09                      8.82200320E+06                      2.68090457E-08                      5.50072340E+07                     -3.72687992E-08                     -4.84454565E-01                     -9.12158510E-01                     -7.26837380E-01                      2.40019168E-01                      6.37103766E+00                     -4.02018270E+00                     -6.19544004E+03                      3.90937900E+03
   12.3250                     -2.85609535E+06                      5.58364119E-10                      8.82037181E+06                      3.53195991E-08                      5.51726647E+07                     -3.79748316E-08                     -5.02262883E-01                     -9.05482659E-01                     -7.21517848E-01                      2.48842162E-01                      3.66391802E+00                     -2.31196558E+00                     -6.19718842E+03                      3.91048224E+03
   12.3500                     -2.86521104E+06                      9.14524532E-10                      8.81870111E+06                      2.40326208E-08                      5.53355478E+07                     -3.77944204E-08                     -5.20071880E-01                     -8.98806554E-01                     -7.16198113E-01                      2.57665492E-01                      1.70082810E+00                     -1.07323800E+00                     -6.19893686E+03                      3.91158552E+03
   12.3750                     -2.87416020E+06                      1.07395646E-09                      8.81698986E+06                      3.00833363E-08                      5.54959529E+07                     -3.84726973E-08                     -5.37880197E-01                     -8.92130703E-01                     -7.10878581E-01                      2.66488485E-01                      4.81917687E-01                     -3.04094442E-01                     -6.20068523E+03                      3.91268877E+03
   12.4000                     -2.88295007E+06                      8.83895821E-10                      8.81523702E+06                      4.27988593E-08                      5.56539840E+07                     -4.09516171E-08                     -5.55688515E-01                     -8.85454852E-01                     -7.05559049E-01                      2.75311478E-01                      7.09769591E-03                     -4.47871066E-03                     -6.20243361E+03                      3.91379201E+03
   12.4250                     -2.89158743E+06                      1.08311797E-09                      8.81344138E+06                      3.23618956E-08                      5.58097357E+07                     -3.76487036E-08                     -5.73497512E-01                     -8.78778746E-01                     -7.00239314E-01                      2.84134808E-01                     -2.76392594E-01                      1.74406240E-01                     -6.20418205E+03                      3.91489529E+03
   12.4500                     -2.90007833E+06                      1.18936978E-09                      8.81160231E+06                      2.29883172E-08                      5.59632958E+07                     -3.78516662E-08                     -5.91305829E-01                     -8.72102896E-01                     -6.94919782E-01                      2.92957802E-01                     -1.28978184E+00                      8.13864067E-01                     -6.20593043E+03                      3.91599853E+03
   12.4750                     -2.90843000E+06                      9.39678023E-10                      8.80971888E+06                      2.82375905E-08                      5.61147745E+07                     -3.77371745E-08                     -6.09114826E-01                     -8.65426790E-01                     -6.89600047E-01                      3.01781132E-01                     -3.04734274E+00                      1.92290098E+00                     -6.20767887E+03                      3.91710181E+03
