
These predictions were generated by HydroDyn on 20-Jul-2020 at 11:35:26.




    Time                      Wave1Elev                        M1N1Vxi                        M1N1Vzi                        M1N1Axi                        M1N1Azi                       M1N1FDxi                       M1N1FDzi                       M1N1FIxi                       M1N1FIzi                       M1N1FAxi                       M1N1FAzi
   (sec)                            (m)                          (m/s)                          (m/s)                        (m/s^2)                        (m/s^2)                          (N/m)                          (N/m)                          (N/m)                          (N/m)                          (N/m)                          (N/m)
    0.0000                     8.8237E-01                     3.5438E-02                     7.9428E-02                     5.1897E-02                    -7.8365E-02                    -1.6538E-01                     1.0436E-01                     7.1489E+02                    -4.5110E+02                    -0.0000E+00                    -0.0000E+00
    0.0250                     8.6946E-01                     3.6559E-02                     7.7561E-02                     5.0528E-02                    -7.7586E-02                    -1.1763E-01                     7.4228E-02                     7.0177E+02                    -4.4282E+02                    -0.0000E+00                    -0.0000E+00
    0.0500                     8.5655E-01                     3.7681E-02                     7.5694E-02                     4.9160E-02                    -7.6808E-02                    -7.7999E-02                     4.9218E-02                     6.8865E+02                    -4.3455E+02                    -0.0000E+00                    -0.0000E+00
    0.0750                     8.4365E-01                     3.8803E-02                     7.3828E-02                     4.7791E-02                    -7.6029E-02                    -4.6479E-02                     2.9329E-02                     6.7553E+02                    -4.2627E+02                    -0.0000E+00                    -0.0000E+00
    0.1000                     8.3074E-01                     3.9924E-02                     7.1961E-02                     4.6423E-02                    -7.5251E-02                    -2.3072E-02                     1.4559E-02                     6.6241E+02                    -4.1799E+02                    -0.0000E+00                    -0.0000E+00
    0.1250                     8.1783E-01                     4.1046E-02                     7.0094E-02                     4.5054E-02                    -7.4472E-02                    -7.7797E-03                     4.9091E-03                     6.4929E+02                    -4.0971E+02                    -0.0000E+00                    -0.0000E+00
    0.1500                     8.0493E-01                     4.2168E-02                     6.8228E-02                     4.3685E-02                    -7.3694E-02                    -6.0069E-04                     3.7904E-04                     6.3618E+02                    -4.0143E+02                    -0.0000E+00                    -0.0000E+00
    0.1750                     7.9202E-01                     4.3289E-02                     6.6361E-02                     4.2317E-02                    -7.2915E-02                     1.5354E-03                    -9.6888E-04                     6.2306E+02                    -3.9315E+02                    -0.0000E+00                    -0.0000E+00
    0.2000                     7.7912E-01                     4.4411E-02                     6.4494E-02                     4.0948E-02                    -7.2137E-02                     1.0584E-02                    -6.6786E-03                     6.0994E+02                    -3.8488E+02                    -0.0000E+00                    -0.0000E+00
    0.2250                     7.6621E-01                     4.5532E-02                     6.2628E-02                     3.9580E-02                    -7.1359E-02                     2.7746E-02                    -1.7508E-02                     5.9682E+02                    -3.7660E+02                    -0.0000E+00                    -0.0000E+00
    0.2500                     7.5330E-01                     4.6654E-02                     6.0761E-02                     3.8211E-02                    -7.0580E-02                     5.3022E-02                    -3.3458E-02                     5.8370E+02                    -3.6832E+02                    -0.0000E+00                    -0.0000E+00
    0.2750                     7.4092E-01                     4.7463E-02                     5.9115E-02                     3.7077E-02                    -6.9608E-02                     7.9205E-02                    -4.9979E-02                     5.7137E+02                    -3.6054E+02                    -0.0000E+00                    -0.0000E+00
    0.3000                     7.2854E-01                     4.8271E-02                     5.7469E-02                     3.5943E-02                    -6.8635E-02                     1.1062E-01                    -6.9805E-02                     5.5904E+02                    -3.5276E+02                    -0.0000E+00                    -0.0000E+00
    0.3250                     7.1616E-01                     4.9080E-02                     5.5823E-02                     3.4809E-02                    -6.7663E-02                     1.4728E-01                    -9.2935E-02                     5.4672E+02                    -3.4498E+02                    -0.0000E+00                    -0.0000E+00
    0.3500                     7.0378E-01                     4.9888E-02                     5.4176E-02                     3.3675E-02                    -6.6691E-02                     1.8917E-01                    -1.1937E-01                     5.3439E+02                    -3.3720E+02                    -0.0000E+00                    -0.0000E+00
    0.3750                     6.9140E-01                     5.0697E-02                     5.2530E-02                     3.2541E-02                    -6.5718E-02                     2.3630E-01                    -1.4911E-01                     5.2206E+02                    -3.2943E+02                    -0.0000E+00                    -0.0000E+00
    0.4000                     6.7902E-01                     5.1505E-02                     5.0884E-02                     3.1407E-02                    -6.4746E-02                     2.8867E-01                    -1.8215E-01                     5.0973E+02                    -3.2165E+02                    -0.0000E+00                    -0.0000E+00
    0.4250                     6.6664E-01                     5.2314E-02                     4.9238E-02                     3.0273E-02                    -6.3774E-02                     3.4627E-01                    -2.1850E-01                     4.9741E+02                    -3.1387E+02                    -0.0000E+00                    -0.0000E+00
    0.4500                     6.5426E-01                     5.3122E-02                     4.7591E-02                     2.9139E-02                    -6.2801E-02                     4.0911E-01                    -2.5815E-01                     4.8508E+02                    -3.0609E+02                    -0.0000E+00                    -0.0000E+00
    0.4750                     6.4188E-01                     5.3931E-02                     4.5945E-02                     2.8004E-02                    -6.1829E-02                     4.7718E-01                    -3.0111E-01                     4.7275E+02                    -2.9831E+02                    -0.0000E+00                    -0.0000E+00
    0.5000                     6.2951E-01                     5.4739E-02                     4.4299E-02                     2.6870E-02                    -6.0857E-02                     5.5049E-01                    -3.4737E-01                     4.6042E+02                    -2.9053E+02                    -0.0000E+00                    -0.0000E+00
    0.5250                     6.1618E-01                     5.5294E-02                     4.2913E-02                     2.5974E-02                    -5.9763E-02                     6.1083E-01                    -3.8544E-01                     4.4923E+02                    -2.8347E+02                    -0.0000E+00                    -0.0000E+00
    0.5500                     6.0285E-01                     5.5849E-02                     4.1526E-02                     2.5078E-02                    -5.8669E-02                     6.7430E-01                    -4.2549E-01                     4.3804E+02                    -2.7641E+02                    -0.0000E+00                    -0.0000E+00
    0.5750                     5.8952E-01                     5.6404E-02                     4.0140E-02                     2.4183E-02                    -5.7575E-02                     7.4091E-01                    -4.6752E-01                     4.2685E+02                    -2.6935E+02                    -0.0000E+00                    -0.0000E+00
    0.6000                     5.7619E-01                     5.6959E-02                     3.8753E-02                     2.3287E-02                    -5.6480E-02                     8.1066E-01                    -5.1153E-01                     4.1566E+02                    -2.6229E+02                    -0.0000E+00                    -0.0000E+00
    0.6250                     5.6286E-01                     5.7514E-02                     3.7366E-02                     2.2391E-02                    -5.5386E-02                     8.8354E-01                    -5.5752E-01                     4.0447E+02                    -2.5523E+02                    -0.0000E+00                    -0.0000E+00
    0.6500                     5.4953E-01                     5.8069E-02                     3.5980E-02                     2.1495E-02                    -5.4292E-02                     9.5956E-01                    -6.0549E-01                     3.9328E+02                    -2.4817E+02                    -0.0000E+00                    -0.0000E+00
    0.6750                     5.3620E-01                     5.8623E-02                     3.4593E-02                     2.0599E-02                    -5.3198E-02                     1.0387E+00                    -6.5544E-01                     3.8209E+02                    -2.4111E+02                    -0.0000E+00                    -0.0000E+00
    0.7000                     5.2287E-01                     5.9178E-02                     3.3207E-02                     1.9703E-02                    -5.2104E-02                     1.1210E+00                    -7.0737E-01                     3.7090E+02                    -2.3404E+02                    -0.0000E+00                    -0.0000E+00
    0.7250                     5.0954E-01                     5.9733E-02                     3.1820E-02                     1.8807E-02                    -5.1010E-02                     1.2064E+00                    -7.6127E-01                     3.5972E+02                    -2.2698E+02                    -0.0000E+00                    -0.0000E+00
    0.7500                     4.9621E-01                     6.0288E-02                     3.0434E-02                     1.7911E-02                    -4.9916E-02                     1.2950E+00                    -8.1716E-01                     3.4853E+02                    -2.1992E+02                    -0.0000E+00                    -0.0000E+00
    0.7750                     4.8876E-01                     6.0648E-02                     2.9330E-02                     1.7243E-02                    -4.8761E-02                     1.3625E+00                    -8.5973E-01                     3.3867E+02                    -2.1370E+02                    -0.0000E+00                    -0.0000E+00
    0.8000                     4.8131E-01                     6.1007E-02                     2.8226E-02                     1.6575E-02                    -4.7605E-02                     1.4316E+00                    -9.0337E-01                     3.2881E+02                    -2.0748E+02                    -0.0000E+00                    -0.0000E+00
    0.8250                     4.7386E-01                     6.1367E-02                     2.7121E-02                     1.5907E-02                    -4.6450E-02                     1.5025E+00                    -9.4810E-01                     3.1896E+02                    -2.0126E+02                    -0.0000E+00                    -0.0000E+00
    0.8500                     4.6641E-01                     6.1727E-02                     2.6017E-02                     1.5238E-02                    -4.5294E-02                     1.5751E+00                    -9.9391E-01                     3.0910E+02                    -1.9504E+02                    -0.0000E+00                    -0.0000E+00
    0.8750                     4.5896E-01                     6.2086E-02                     2.4913E-02                     1.4570E-02                    -4.4139E-02                     1.6494E+00                    -1.0408E+00                     2.9924E+02                    -1.8883E+02                    -0.0000E+00                    -0.0000E+00
    0.9000                     4.5151E-01                     6.2446E-02                     2.3809E-02                     1.3902E-02                    -4.2983E-02                     1.7254E+00                    -1.0888E+00                     2.8939E+02                    -1.8261E+02                    -0.0000E+00                    -0.0000E+00
    0.9250                     4.4406E-01                     6.2806E-02                     2.2704E-02                     1.3234E-02                    -4.1828E-02                     1.8032E+00                    -1.1378E+00                     2.7953E+02                    -1.7639E+02                    -0.0000E+00                    -0.0000E+00
    0.9500                     4.3660E-01                     6.3165E-02                     2.1600E-02                     1.2566E-02                    -4.0672E-02                     1.8826E+00                    -1.1879E+00                     2.6967E+02                    -1.7017E+02                    -0.0000E+00                    -0.0000E+00
    0.9750                     4.2915E-01                     6.3525E-02                     2.0496E-02                     1.1898E-02                    -3.9517E-02                     1.9638E+00                    -1.2392E+00                     2.5982E+02                    -1.6395E+02                    -0.0000E+00                    -0.0000E+00
    1.0000                     4.2170E-01                     6.3885E-02                     1.9392E-02                     1.1229E-02                    -3.8361E-02                     2.0466E+00                    -1.2914E+00                     2.4996E+02                    -1.5773E+02                    -0.0000E+00                    -0.0000E+00
    1.0250                     4.1090E-01                     6.4104E-02                     1.8579E-02                     1.0770E-02                    -3.7191E-02                     2.1051E+00                    -1.3283E+00                     2.4151E+02                    -1.5240E+02                    -0.0000E+00                    -0.0000E+00
    1.0500                     4.0010E-01                     6.4323E-02                     1.7766E-02                     1.0311E-02                    -3.6021E-02                     2.1643E+00                    -1.3657E+00                     2.3307E+02                    -1.4707E+02                    -0.0000E+00                    -0.0000E+00
    1.0750                     3.8930E-01                     6.4542E-02                     1.6954E-02                     9.8513E-03                    -3.4851E-02                     2.2244E+00                    -1.4036E+00                     2.2462E+02                    -1.4174E+02                    -0.0000E+00                    -0.0000E+00
    1.1000                     3.7850E-01                     6.4762E-02                     1.6141E-02                     9.3919E-03                    -3.3682E-02                     2.2853E+00                    -1.4420E+00                     2.1617E+02                    -1.3641E+02                    -0.0000E+00                    -0.0000E+00
    1.1250                     3.6770E-01                     6.4981E-02                     1.5328E-02                     8.9325E-03                    -3.2512E-02                     2.3470E+00                    -1.4810E+00                     2.0772E+02                    -1.3107E+02                    -0.0000E+00                    -0.0000E+00
    1.1500                     3.5690E-01                     6.5200E-02                     1.4516E-02                     8.4731E-03                    -3.1342E-02                     2.4095E+00                    -1.5204E+00                     1.9927E+02                    -1.2574E+02                    -0.0000E+00                    -0.0000E+00
    1.1750                     3.4610E-01                     6.5419E-02                     1.3703E-02                     8.0137E-03                    -3.0172E-02                     2.4729E+00                    -1.5604E+00                     1.9083E+02                    -1.2041E+02                    -0.0000E+00                    -0.0000E+00
    1.2000                     3.3530E-01                     6.5638E-02                     1.2890E-02                     7.5543E-03                    -2.9002E-02                     2.5371E+00                    -1.6009E+00                     1.8238E+02                    -1.1508E+02                    -0.0000E+00                    -0.0000E+00
    1.2250                     3.2450E-01                     6.5858E-02                     1.2078E-02                     7.0950E-03                    -2.7832E-02                     2.6021E+00                    -1.6419E+00                     1.7393E+02                    -1.0975E+02                    -0.0000E+00                    -0.0000E+00
    1.2500                     3.1370E-01                     6.6077E-02                     1.1265E-02                     6.6356E-03                    -2.6662E-02                     2.6679E+00                    -1.6835E+00                     1.6548E+02                    -1.0442E+02                    -0.0000E+00                    -0.0000E+00
    1.2750                     3.0073E-01                     6.6205E-02                     1.0743E-02                     6.3624E-03                    -2.5512E-02                     2.7095E+00                    -1.7097E+00                     1.5844E+02                    -9.9975E+01                    -0.0000E+00                    -0.0000E+00
    1.3000                     2.8775E-01                     6.6333E-02                     1.0221E-02                     6.0892E-03                    -2.4362E-02                     2.7513E+00                    -1.7361E+00                     1.5139E+02                    -9.5529E+01                    -0.0000E+00                    -0.0000E+00
    1.3250                     2.7478E-01                     6.6461E-02                     9.6987E-03                     5.8160E-03                    -2.3212E-02                     2.7935E+00                    -1.7627E+00                     1.4434E+02                    -9.1082E+01                    -0.0000E+00                    -0.0000E+00
    1.3500                     2.6181E-01                     6.6589E-02                     9.1766E-03                     5.5428E-03                    -2.2061E-02                     2.8361E+00                    -1.7896E+00                     1.3730E+02                    -8.6636E+01                    -0.0000E+00                    -0.0000E+00
    1.3750                     2.4883E-01                     6.6717E-02                     8.6545E-03                     5.2697E-03                    -2.0911E-02                     2.8789E+00                    -1.8166E+00                     1.3025E+02                    -8.2189E+01                    -0.0000E+00                    -0.0000E+00
    1.4000                     2.3586E-01                     6.6845E-02                     8.1324E-03                     4.9965E-03                    -1.9761E-02                     2.9221E+00                    -1.8439E+00                     1.2320E+02                    -7.7743E+01                    -0.0000E+00                    -0.0000E+00
    1.4250                     2.2289E-01                     6.6973E-02                     7.6103E-03                     4.7233E-03                    -1.8611E-02                     2.9656E+00                    -1.8713E+00                     1.1616E+02                    -7.3296E+01                    -0.0000E+00                    -0.0000E+00
    1.4500                     2.0991E-01                     6.7102E-02                     7.0882E-03                     4.4501E-03                    -1.7461E-02                     3.0094E+00                    -1.8989E+00                     1.0911E+02                    -6.8850E+01                    -0.0000E+00                    -0.0000E+00
    1.4750                     1.9694E-01                     6.7230E-02                     6.5661E-03                     4.1769E-03                    -1.6311E-02                     3.0535E+00                    -1.9268E+00                     1.0206E+02                    -6.4403E+01                    -0.0000E+00                    -0.0000E+00
    1.5000                     1.8397E-01                     6.7358E-02                     6.0440E-03                     3.9037E-03                    -1.5160E-02                     3.0980E+00                    -1.9548E+00                     9.5017E+01                    -5.9957E+01                    -0.0000E+00                    -0.0000E+00
    1.5250                     1.7583E-01                     6.7438E-02                     5.8045E-03                     3.7946E-03                    -1.4053E-02                     3.1206E+00                    -1.9691E+00                     8.9319E+01                    -5.6361E+01                    -0.0000E+00                    -0.0000E+00
    1.5500                     1.6770E-01                     6.7519E-02                     5.5650E-03                     3.6856E-03                    -1.2946E-02                     3.1433E+00                    -1.9835E+00                     8.3621E+01                    -5.2766E+01                    -0.0000E+00                    -0.0000E+00
    1.5750                     1.5957E-01                     6.7600E-02                     5.3255E-03                     3.5765E-03                    -1.1839E-02                     3.1662E+00                    -1.9979E+00                     7.7923E+01                    -4.9170E+01                    -0.0000E+00                    -0.0000E+00
    1.6000                     1.5144E-01                     6.7681E-02                     5.0859E-03                     3.4674E-03                    -1.0731E-02                     3.1891E+00                    -2.0123E+00                     7.2225E+01                    -4.5575E+01                    -0.0000E+00                    -0.0000E+00
    1.6250                     1.4331E-01                     6.7761E-02                     4.8464E-03                     3.3583E-03                    -9.6241E-03                     3.2120E+00                    -2.0268E+00                     6.6527E+01                    -4.1979E+01                    -0.0000E+00                    -0.0000E+00
    1.6500                     1.3518E-01                     6.7842E-02                     4.6069E-03                     3.2492E-03                    -8.5168E-03                     3.2351E+00                    -2.0414E+00                     6.0829E+01                    -3.8384E+01                    -0.0000E+00                    -0.0000E+00
    1.6750                     1.2705E-01                     6.7923E-02                     4.3674E-03                     3.1402E-03                    -7.4095E-03                     3.2583E+00                    -2.0560E+00                     5.5131E+01                    -3.4788E+01                    -0.0000E+00                    -0.0000E+00
    1.7000                     1.1892E-01                     6.8004E-02                     4.1278E-03                     3.0311E-03                    -6.3023E-03                     3.2815E+00                    -2.0706E+00                     4.9433E+01                    -3.1193E+01                    -0.0000E+00                    -0.0000E+00
    1.7250                     1.1079E-01                     6.8084E-02                     3.8883E-03                     2.9220E-03                    -5.1950E-03                     3.3048E+00                    -2.0854E+00                     4.3735E+01                    -2.7597E+01                    -0.0000E+00                    -0.0000E+00
    1.7500                     1.0266E-01                     6.8165E-02                     3.6488E-03                     2.8129E-03                    -4.0878E-03                     3.3282E+00                    -2.1001E+00                     3.8037E+01                    -2.4002E+01                    -0.0000E+00                    -0.0000E+00
    1.7750                     9.8711E-02                     6.8237E-02                     3.6790E-03                     2.8494E-03                    -3.0387E-03                     3.3335E+00                    -2.1035E+00                     3.3625E+01                    -2.1218E+01                    -0.0000E+00                    -0.0000E+00
    1.8000                     9.4765E-02                     6.8309E-02                     3.7093E-03                     2.8858E-03                    -1.9897E-03                     3.3389E+00                    -2.1069E+00                     2.9213E+01                    -1.8434E+01                    -0.0000E+00                    -0.0000E+00
    1.8250                     9.0819E-02                     6.8381E-02                     3.7396E-03                     2.9223E-03                    -9.4065E-04                     3.3443E+00                    -2.1103E+00                     2.4801E+01                    -1.5650E+01                    -0.0000E+00                    -0.0000E+00
    1.8500                     8.6873E-02                     6.8453E-02                     3.7699E-03                     2.9588E-03                     1.0838E-04                     3.3496E+00                    -2.1136E+00                     2.0389E+01                    -1.2866E+01                    -0.0000E+00                    -0.0000E+00
    1.8750                     8.2928E-02                     6.8525E-02                     3.8001E-03                     2.9953E-03                     1.1574E-03                     3.3550E+00                    -2.1170E+00                     1.5977E+01                    -1.0081E+01                    -0.0000E+00                    -0.0000E+00
    1.9000                     7.8982E-02                     6.8597E-02                     3.8304E-03                     3.0317E-03                     2.2065E-03                     3.3604E+00                    -2.1204E+00                     1.1565E+01                    -7.2974E+00                    -0.0000E+00                    -0.0000E+00
    1.9250                     7.5036E-02                     6.8669E-02                     3.8607E-03                     3.0682E-03                     3.2555E-03                     3.3657E+00                    -2.1238E+00                     7.1525E+00                    -4.5133E+00                    -0.0000E+00                    -0.0000E+00
    1.9500                     7.1090E-02                     6.8741E-02                     3.8910E-03                     3.1047E-03                     4.3045E-03                     3.3711E+00                    -2.1272E+00                     2.7404E+00                    -1.7292E+00                    -0.0000E+00                    -0.0000E+00
    1.9750                     6.7145E-02                     6.8813E-02                     3.9212E-03                     3.1412E-03                     5.3536E-03                     3.3765E+00                    -2.1306E+00                    -1.6717E+00                     1.0549E+00                    -0.0000E+00                    -0.0000E+00
    2.0000                     6.3199E-02                     6.8885E-02                     3.9515E-03                     3.1776E-03                     6.4026E-03                     3.3819E+00                    -2.1340E+00                    -6.0838E+00                     3.8389E+00                    -0.0000E+00                    -0.0000E+00
    2.0250                     5.2181E-02                     6.8983E-02                     4.2356E-03                     3.3463E-03                     7.3825E-03                     3.3736E+00                    -2.1288E+00                    -9.2556E+00                     5.8404E+00                    -0.0000E+00                    -0.0000E+00
    2.0500                     4.1163E-02                     6.9081E-02                     4.5197E-03                     3.5149E-03                     8.3623E-03                     3.3653E+00                    -2.1236E+00                    -1.2427E+01                     7.8418E+00                    -0.0000E+00                    -0.0000E+00
    2.0750                     3.0144E-02                     6.9179E-02                     4.8038E-03                     3.6836E-03                     9.3422E-03                     3.3571E+00                    -2.1183E+00                    -1.5599E+01                     9.8432E+00                    -0.0000E+00                    -0.0000E+00
    2.1000                     1.9126E-02                     6.9277E-02                     5.0879E-03                     3.8522E-03                     1.0322E-02                     3.3488E+00                    -2.1131E+00                    -1.8771E+01                     1.1845E+01                    -0.0000E+00                    -0.0000E+00
    2.1250                     8.1080E-03                     6.9375E-02                     5.3719E-03                     4.0209E-03                     1.1302E-02                     3.3406E+00                    -2.1079E+00                    -2.1943E+01                     1.3846E+01                    -0.0000E+00                    -0.0000E+00
    2.1500                    -2.9101E-03                     6.9473E-02                     5.6560E-03                     4.1896E-03                     1.2282E-02                     3.3323E+00                    -2.1027E+00                    -2.5115E+01                     1.5848E+01                    -0.0000E+00                    -0.0000E+00
    2.1750                    -1.3928E-02                     6.9571E-02                     5.9401E-03                     4.3582E-03                     1.3262E-02                     3.3241E+00                    -2.0975E+00                    -2.8286E+01                     1.7849E+01                    -0.0000E+00                    -0.0000E+00
    2.2000                    -2.4946E-02                     6.9668E-02                     6.2242E-03                     4.5269E-03                     1.4241E-02                     3.3159E+00                    -2.0924E+00                    -3.1458E+01                     1.9850E+01                    -0.0000E+00                    -0.0000E+00
    2.2250                    -3.5965E-02                     6.9766E-02                     6.5083E-03                     4.6955E-03                     1.5221E-02                     3.3077E+00                    -2.0872E+00                    -3.4630E+01                     2.1852E+01                    -0.0000E+00                    -0.0000E+00
    2.2500                    -4.6983E-02                     6.9864E-02                     6.7924E-03                     4.8642E-03                     1.6201E-02                     3.2995E+00                    -2.0820E+00                    -3.7802E+01                     2.3853E+01                    -0.0000E+00                    -0.0000E+00
    2.2750                    -6.2725E-02                     7.0020E-02                     7.3117E-03                     5.1571E-03                     1.7102E-02                     3.2822E+00                    -2.0711E+00                    -3.9743E+01                     2.5078E+01                    -0.0000E+00                    -0.0000E+00
    2.3000                    -7.8467E-02                     7.0175E-02                     7.8311E-03                     5.4500E-03                     1.8002E-02                     3.2649E+00                    -2.0602E+00                    -4.1684E+01                     2.6303E+01                    -0.0000E+00                    -0.0000E+00
    2.3250                    -9.4210E-02                     7.0331E-02                     8.3504E-03                     5.7429E-03                     1.8902E-02                     3.2477E+00                    -2.0494E+00                    -4.3626E+01                     2.7528E+01                    -0.0000E+00                    -0.0000E+00
    2.3500                    -1.0995E-01                     7.0487E-02                     8.8698E-03                     6.0358E-03                     1.9802E-02                     3.2306E+00                    -2.0385E+00                    -4.5567E+01                     2.8753E+01                    -0.0000E+00                    -0.0000E+00
    2.3750                    -1.2569E-01                     7.0643E-02                     9.3891E-03                     6.3287E-03                     2.0703E-02                     3.2135E+00                    -2.0277E+00                    -4.7508E+01                     2.9978E+01                    -0.0000E+00                    -0.0000E+00
    2.4000                    -1.4144E-01                     7.0798E-02                     9.9085E-03                     6.6216E-03                     2.1603E-02                     3.1964E+00                    -2.0170E+00                    -4.9450E+01                     3.1203E+01                    -0.0000E+00                    -0.0000E+00
    2.4250                    -1.5718E-01                     7.0954E-02                     1.0428E-02                     6.9145E-03                     2.2503E-02                     3.1794E+00                    -2.0062E+00                    -5.1391E+01                     3.2428E+01                    -0.0000E+00                    -0.0000E+00
    2.4500                    -1.7292E-01                     7.1110E-02                     1.0947E-02                     7.2074E-03                     2.3404E-02                     3.1624E+00                    -1.9955E+00                    -5.3332E+01                     3.3653E+01                    -0.0000E+00                    -0.0000E+00
    2.4750                    -1.8866E-01                     7.1265E-02                     1.1466E-02                     7.5003E-03                     2.4304E-02                     3.1455E+00                    -1.9848E+00                    -5.5274E+01                     3.4878E+01                    -0.0000E+00                    -0.0000E+00
    2.5000                    -2.0441E-01                     7.1421E-02                     1.1986E-02                     7.7932E-03                     2.5204E-02                     3.1286E+00                    -1.9742E+00                    -5.7215E+01                     3.6103E+01                    -0.0000E+00                    -0.0000E+00
    2.5250                    -2.0776E-01                     7.1665E-02                     1.2719E-02                     8.2069E-03                     2.6012E-02                     3.1073E+00                    -1.9607E+00                    -5.7892E+01                     3.6530E+01                    -0.0000E+00                    -0.0000E+00
    2.5500                    -2.1111E-01                     7.1909E-02                     1.3452E-02                     8.6206E-03                     2.6820E-02                     3.0859E+00                    -1.9473E+00                    -5.8569E+01                     3.6957E+01                    -0.0000E+00                    -0.0000E+00
    2.5750                    -2.1446E-01                     7.2153E-02                     1.4185E-02                     9.0343E-03                     2.7627E-02                     3.0647E+00                    -1.9339E+00                    -5.9245E+01                     3.7384E+01                    -0.0000E+00                    -0.0000E+00
    2.6000                    -2.1781E-01                     7.2397E-02                     1.4919E-02                     9.4480E-03                     2.8435E-02                     3.0435E+00                    -1.9205E+00                    -5.9922E+01                     3.7811E+01                    -0.0000E+00                    -0.0000E+00
    2.6250                    -2.2116E-01                     7.2641E-02                     1.5652E-02                     9.8617E-03                     2.9243E-02                     3.0225E+00                    -1.9072E+00                    -6.0599E+01                     3.8238E+01                    -0.0000E+00                    -0.0000E+00
    2.6500                    -2.2451E-01                     7.2885E-02                     1.6385E-02                     1.0275E-02                     3.0050E-02                     3.0014E+00                    -1.8939E+00                    -6.1276E+01                     3.8665E+01                    -0.0000E+00                    -0.0000E+00
    2.6750                    -2.2787E-01                     7.3129E-02                     1.7118E-02                     1.0689E-02                     3.0858E-02                     2.9805E+00                    -1.8807E+00                    -6.1952E+01                     3.9093E+01                    -0.0000E+00                    -0.0000E+00
    2.7000                    -2.3122E-01                     7.3373E-02                     1.7851E-02                     1.1103E-02                     3.1666E-02                     2.9596E+00                    -1.8675E+00                    -6.2629E+01                     3.9520E+01                    -0.0000E+00                    -0.0000E+00
    2.7250                    -2.3457E-01                     7.3617E-02                     1.8584E-02                     1.1517E-02                     3.2473E-02                     2.9388E+00                    -1.8544E+00                    -6.3306E+01                     3.9947E+01                    -0.0000E+00                    -0.0000E+00
    2.7500                    -2.3792E-01                     7.3861E-02                     1.9318E-02                     1.1930E-02                     3.3281E-02                     2.9181E+00                    -1.8413E+00                    -6.3983E+01                     4.0374E+01                    -0.0000E+00                    -0.0000E+00
    2.7750                    -2.2833E-01                     7.4224E-02                     2.0239E-02                     1.2464E-02                     3.3978E-02                     2.8974E+00                    -1.8283E+00                    -6.3319E+01                     3.9955E+01                    -0.0000E+00                    -0.0000E+00
    2.8000                    -2.1874E-01                     7.4586E-02                     2.1161E-02                     1.2997E-02                     3.4674E-02                     2.8768E+00                    -1.8153E+00                    -6.2656E+01                     3.9537E+01                    -0.0000E+00                    -0.0000E+00
    2.8250                    -2.0915E-01                     7.4949E-02                     2.2082E-02                     1.3531E-02                     3.5370E-02                     2.8562E+00                    -1.8023E+00                    -6.1993E+01                     3.9118E+01                    -0.0000E+00                    -0.0000E+00
    2.8500                    -1.9956E-01                     7.5311E-02                     2.3004E-02                     1.4064E-02                     3.6067E-02                     2.8357E+00                    -1.7894E+00                    -6.1329E+01                     3.8699E+01                    -0.0000E+00                    -0.0000E+00
    2.8750                    -1.8997E-01                     7.5674E-02                     2.3926E-02                     1.4598E-02                     3.6763E-02                     2.8153E+00                    -1.7765E+00                    -6.0666E+01                     3.8281E+01                    -0.0000E+00                    -0.0000E+00
    2.9000                    -1.8038E-01                     7.6036E-02                     2.4847E-02                     1.5131E-02                     3.7460E-02                     2.7950E+00                    -1.7637E+00                    -6.0003E+01                     3.7862E+01                    -0.0000E+00                    -0.0000E+00
    2.9250                    -1.7079E-01                     7.6398E-02                     2.5769E-02                     1.5665E-02                     3.8156E-02                     2.7748E+00                    -1.7509E+00                    -5.9339E+01                     3.7444E+01                    -0.0000E+00                    -0.0000E+00
    2.9500                    -1.6120E-01                     7.6761E-02                     2.6691E-02                     1.6198E-02                     3.8853E-02                     2.7546E+00                    -1.7382E+00                    -5.8676E+01                     3.7025E+01                    -0.0000E+00                    -0.0000E+00
    2.9750                    -1.5161E-01                     7.7123E-02                     2.7612E-02                     1.6732E-02                     3.9549E-02                     2.7345E+00                    -1.7255E+00                    -5.8013E+01                     3.6607E+01                    -0.0000E+00                    -0.0000E+00
    3.0000                    -1.4202E-01                     7.7486E-02                     2.8534E-02                     1.7265E-02                     4.0246E-02                     2.7144E+00                    -1.7128E+00                    -5.7349E+01                     3.6188E+01                    -0.0000E+00                    -0.0000E+00
    3.0250                    -1.2929E-01                     7.7996E-02                     2.9613E-02                     1.7917E-02                     4.0805E-02                     2.6989E+00                    -1.7030E+00                    -5.5241E+01                     3.4857E+01                    -0.0000E+00                    -0.0000E+00
    3.0500                    -1.1656E-01                     7.8507E-02                     3.0692E-02                     1.8569E-02                     4.1364E-02                     2.6834E+00                    -1.6933E+00                    -5.3132E+01                     3.3527E+01                    -0.0000E+00                    -0.0000E+00
    3.0750                    -1.0383E-01                     7.9018E-02                     3.1772E-02                     1.9221E-02                     4.1924E-02                     2.6680E+00                    -1.6835E+00                    -5.1024E+01                     3.2196E+01                    -0.0000E+00                    -0.0000E+00
    3.1000                    -9.1105E-02                     7.9529E-02                     3.2851E-02                     1.9873E-02                     4.2483E-02                     2.6526E+00                    -1.6738E+00                    -4.8915E+01                     3.0866E+01                    -0.0000E+00                    -0.0000E+00
    3.1250                    -7.8376E-02                     8.0039E-02                     3.3930E-02                     2.0525E-02                     4.3043E-02                     2.6373E+00                    -1.6641E+00                    -4.6806E+01                     2.9535E+01                    -0.0000E+00                    -0.0000E+00
    3.1500                    -6.5648E-02                     8.0550E-02                     3.5009E-02                     2.1177E-02                     4.3602E-02                     2.6220E+00                    -1.6545E+00                    -4.4698E+01                     2.8205E+01                    -0.0000E+00                    -0.0000E+00
    3.1750                    -5.2919E-02                     8.1061E-02                     3.6089E-02                     2.1829E-02                     4.4161E-02                     2.6067E+00                    -1.6449E+00                    -4.2589E+01                     2.6874E+01                    -0.0000E+00                    -0.0000E+00
    3.2000                    -4.0190E-02                     8.1571E-02                     3.7168E-02                     2.2480E-02                     4.4721E-02                     2.5915E+00                    -1.6353E+00                    -4.0480E+01                     2.5544E+01                    -0.0000E+00                    -0.0000E+00
    3.2250                    -2.7462E-02                     8.2082E-02                     3.8247E-02                     2.3132E-02                     4.5280E-02                     2.5763E+00                    -1.6257E+00                    -3.8372E+01                     2.4213E+01                    -0.0000E+00                    -0.0000E+00
    3.2500                    -1.4733E-02                     8.2593E-02                     3.9326E-02                     2.3784E-02                     4.5839E-02                     2.5612E+00                    -1.6161E+00                    -3.6263E+01                     2.2882E+01                    -0.0000E+00                    -0.0000E+00
    3.2750                     5.6584E-03                     8.3281E-02                     4.0525E-02                     2.4549E-02                     4.6228E-02                     2.5552E+00                    -1.6123E+00                    -3.2596E+01                     2.0568E+01                    -0.0000E+00                    -0.0000E+00
    3.3000                     2.6050E-02                     8.3969E-02                     4.1723E-02                     2.5315E-02                     4.6617E-02                     2.5491E+00                    -1.6085E+00                    -2.8929E+01                     1.8254E+01                    -0.0000E+00                    -0.0000E+00
    3.3250                     4.6441E-02                     8.4657E-02                     4.2922E-02                     2.6080E-02                     4.7006E-02                     2.5431E+00                    -1.6047E+00                    -2.5261E+01                     1.5940E+01                    -0.0000E+00                    -0.0000E+00
    3.3500                     6.6832E-02                     8.5345E-02                     4.4121E-02                     2.6845E-02                     4.7394E-02                     2.5370E+00                    -1.6009E+00                    -2.1594E+01                     1.3626E+01                    -0.0000E+00                    -0.0000E+00
    3.3750                     8.7224E-02                     8.6033E-02                     4.5319E-02                     2.7610E-02                     4.7783E-02                     2.5310E+00                    -1.5971E+00                    -1.7927E+01                     1.1312E+01                    -0.0000E+00                    -0.0000E+00
    3.4000                     1.0762E-01                     8.6721E-02                     4.6518E-02                     2.8375E-02                     4.8172E-02                     2.5250E+00                    -1.5933E+00                    -1.4260E+01                     8.9979E+00                    -0.0000E+00                    -0.0000E+00
    3.4250                     1.2801E-01                     8.7409E-02                     4.7716E-02                     2.9141E-02                     4.8561E-02                     2.5190E+00                    -1.5895E+00                    -1.0592E+01                     6.6839E+00                    -0.0000E+00                    -0.0000E+00
    3.4500                     1.4840E-01                     8.8097E-02                     4.8915E-02                     2.9906E-02                     4.8949E-02                     2.5130E+00                    -1.5857E+00                    -6.9251E+00                     4.3698E+00                    -0.0000E+00                    -0.0000E+00
    3.4750                     1.6879E-01                     8.8785E-02                     5.0113E-02                     3.0671E-02                     4.9338E-02                     2.5070E+00                    -1.5819E+00                    -3.2578E+00                     2.0557E+00                    -0.0000E+00                    -0.0000E+00
    3.5000                     1.8918E-01                     8.9473E-02                     5.1312E-02                     3.1436E-02                     4.9727E-02                     2.5010E+00                    -1.5782E+00                     4.0949E-01                    -2.5839E-01                    -0.0000E+00                    -0.0000E+00
    3.5250                     2.0460E-01                     9.0365E-02                     5.2582E-02                     3.2302E-02                     4.9904E-02                     2.5090E+00                    -1.5832E+00                     5.7296E+00                    -3.6154E+00                    -0.0000E+00                    -0.0000E+00
    3.5500                     2.2002E-01                     9.1257E-02                     5.3852E-02                     3.3168E-02                     5.0081E-02                     2.5169E+00                    -1.5882E+00                     1.1050E+01                    -6.9725E+00                    -0.0000E+00                    -0.0000E+00
    3.5750                     2.3544E-01                     9.2149E-02                     5.5122E-02                     3.4034E-02                     5.0259E-02                     2.5249E+00                    -1.5932E+00                     1.6370E+01                    -1.0330E+01                    -0.0000E+00                    -0.0000E+00
    3.6000                     2.5085E-01                     9.3042E-02                     5.6393E-02                     3.4900E-02                     5.0436E-02                     2.5329E+00                    -1.5983E+00                     2.1690E+01                    -1.3687E+01                    -0.0000E+00                    -0.0000E+00
    3.6250                     2.6627E-01                     9.3934E-02                     5.7663E-02                     3.5766E-02                     5.0613E-02                     2.5409E+00                    -1.6033E+00                     2.7010E+01                    -1.7044E+01                    -0.0000E+00                    -0.0000E+00
    3.6500                     2.8169E-01                     9.4826E-02                     5.8933E-02                     3.6633E-02                     5.0791E-02                     2.5489E+00                    -1.6084E+00                     3.2330E+01                    -2.0401E+01                    -0.0000E+00                    -0.0000E+00
    3.6750                     2.9711E-01                     9.5718E-02                     6.0203E-02                     3.7499E-02                     5.0968E-02                     2.5570E+00                    -1.6135E+00                     3.7650E+01                    -2.3758E+01                    -0.0000E+00                    -0.0000E+00
    3.7000                     3.1253E-01                     9.6611E-02                     6.1473E-02                     3.8365E-02                     5.1145E-02                     2.5650E+00                    -1.6185E+00                     4.2970E+01                    -2.7115E+01                    -0.0000E+00                    -0.0000E+00
    3.7250                     3.2794E-01                     9.7503E-02                     6.2744E-02                     3.9231E-02                     5.1322E-02                     2.5731E+00                    -1.6236E+00                     4.8290E+01                    -3.0472E+01                    -0.0000E+00                    -0.0000E+00
    3.7500                     3.4336E-01                     9.8395E-02                     6.4014E-02                     4.0097E-02                     5.1500E-02                     2.5811E+00                    -1.6287E+00                     5.3611E+01                    -3.3829E+01                    -0.0000E+00                    -0.0000E+00
    3.7750                     3.5082E-01                     9.9514E-02                     6.5297E-02                     4.1041E-02                     5.1420E-02                     2.6087E+00                    -1.6461E+00                     6.0625E+01                    -3.8255E+01                    -0.0000E+00                    -0.0000E+00
    3.8000                     3.5827E-01                     1.0063E-01                     6.6580E-02                     4.1985E-02                     5.1340E-02                     2.6365E+00                    -1.6636E+00                     6.7640E+01                    -4.2681E+01                    -0.0000E+00                    -0.0000E+00
    3.8250                     3.6573E-01                     1.0175E-01                     6.7864E-02                     4.2929E-02                     5.1260E-02                     2.6644E+00                    -1.6813E+00                     7.4654E+01                    -4.7108E+01                    -0.0000E+00                    -0.0000E+00
    3.8500                     3.7318E-01                     1.0287E-01                     6.9147E-02                     4.3873E-02                     5.1180E-02                     2.6924E+00                    -1.6989E+00                     8.1669E+01                    -5.1534E+01                    -0.0000E+00                    -0.0000E+00
    3.8750                     3.8064E-01                     1.0399E-01                     7.0430E-02                     4.4817E-02                     5.1100E-02                     2.7206E+00                    -1.7167E+00                     8.8683E+01                    -5.5960E+01                    -0.0000E+00                    -0.0000E+00
    3.9000                     3.8810E-01                     1.0511E-01                     7.1714E-02                     4.5760E-02                     5.1020E-02                     2.7490E+00                    -1.7346E+00                     9.5698E+01                    -6.0386E+01                    -0.0000E+00                    -0.0000E+00
    3.9250                     3.9555E-01                     1.0623E-01                     7.2997E-02                     4.6704E-02                     5.0940E-02                     2.7774E+00                    -1.7526E+00                     1.0271E+02                    -6.4813E+01                    -0.0000E+00                    -0.0000E+00
    3.9500                     4.0301E-01                     1.0735E-01                     7.4281E-02                     4.7648E-02                     5.0860E-02                     2.8061E+00                    -1.7707E+00                     1.0973E+02                    -6.9239E+01                    -0.0000E+00                    -0.0000E+00
    3.9750                     4.1046E-01                     1.0847E-01                     7.5564E-02                     4.8592E-02                     5.0780E-02                     2.8348E+00                    -1.7888E+00                     1.1674E+02                    -7.3665E+01                    -0.0000E+00                    -0.0000E+00
    4.0000                     4.1792E-01                     1.0959E-01                     7.6847E-02                     4.9536E-02                     5.0700E-02                     2.8638E+00                    -1.8071E+00                     1.2376E+02                    -7.8091E+01                    -0.0000E+00                    -0.0000E+00
    4.0250                     4.1583E-01                     1.1095E-01                     7.8073E-02                     5.0522E-02                     5.0315E-02                     2.9191E+00                    -1.8420E+00                     1.3242E+02                    -8.3559E+01                    -0.0000E+00                    -0.0000E+00
    4.0500                     4.1373E-01                     1.1231E-01                     7.9300E-02                     5.1507E-02                     4.9930E-02                     2.9750E+00                    -1.8772E+00                     1.4109E+02                    -8.9027E+01                    -0.0000E+00                    -0.0000E+00
    4.0750                     4.1164E-01                     1.1367E-01                     8.0526E-02                     5.2493E-02                     4.9545E-02                     3.0314E+00                    -1.9128E+00                     1.4975E+02                    -9.4495E+01                    -0.0000E+00                    -0.0000E+00
    4.1000                     4.0955E-01                     1.1503E-01                     8.1752E-02                     5.3478E-02                     4.9160E-02                     3.0883E+00                    -1.9487E+00                     1.5842E+02                    -9.9962E+01                    -0.0000E+00                    -0.0000E+00
    4.1250                     4.0745E-01                     1.1639E-01                     8.2978E-02                     5.4464E-02                     4.8775E-02                     3.1457E+00                    -1.9850E+00                     1.6708E+02                    -1.0543E+02                    -0.0000E+00                    -0.0000E+00
    4.1500                     4.0536E-01                     1.1775E-01                     8.4205E-02                     5.5449E-02                     4.8390E-02                     3.2037E+00                    -2.0216E+00                     1.7575E+02                    -1.1090E+02                    -0.0000E+00                    -0.0000E+00
    4.1750                     4.0327E-01                     1.1911E-01                     8.5431E-02                     5.6435E-02                     4.8005E-02                     3.2622E+00                    -2.0585E+00                     1.8441E+02                    -1.1637E+02                    -0.0000E+00                    -0.0000E+00
    4.2000                     4.0117E-01                     1.2048E-01                     8.6657E-02                     5.7420E-02                     4.7620E-02                     3.3213E+00                    -2.0958E+00                     1.9308E+02                    -1.2183E+02                    -0.0000E+00                    -0.0000E+00
    4.2250                     3.9908E-01                     1.2184E-01                     8.7883E-02                     5.8406E-02                     4.7235E-02                     3.3809E+00                    -2.1333E+00                     2.0174E+02                    -1.2730E+02                    -0.0000E+00                    -0.0000E+00
    4.2500                     3.9699E-01                     1.2320E-01                     8.9109E-02                     5.9391E-02                     4.6850E-02                     3.4410E+00                    -2.1713E+00                     2.1041E+02                    -1.3277E+02                    -0.0000E+00                    -0.0000E+00
    4.2750                     3.9527E-01                     1.2481E-01                     9.0197E-02                     6.0367E-02                     4.6116E-02                     3.5363E+00                    -2.2314E+00                     2.2056E+02                    -1.3917E+02                    -0.0000E+00                    -0.0000E+00
    4.3000                     3.9355E-01                     1.2641E-01                     9.1284E-02                     6.1342E-02                     4.5381E-02                     3.6330E+00                    -2.2924E+00                     2.3071E+02                    -1.4558E+02                    -0.0000E+00                    -0.0000E+00
    4.3250                     3.9183E-01                     1.2802E-01                     9.2371E-02                     6.2318E-02                     4.4646E-02                     3.7309E+00                    -2.3543E+00                     2.4086E+02                    -1.5199E+02                    -0.0000E+00                    -0.0000E+00
    4.3500                     3.9011E-01                     1.2963E-01                     9.3458E-02                     6.3293E-02                     4.3911E-02                     3.8302E+00                    -2.4169E+00                     2.5102E+02                    -1.5839E+02                    -0.0000E+00                    -0.0000E+00
    4.3750                     3.8840E-01                     1.3124E-01                     9.4545E-02                     6.4269E-02                     4.3176E-02                     3.9308E+00                    -2.4804E+00                     2.6117E+02                    -1.6480E+02                    -0.0000E+00                    -0.0000E+00
    4.4000                     3.8668E-01                     1.3284E-01                     9.5632E-02                     6.5244E-02                     4.2441E-02                     4.0326E+00                    -2.5446E+00                     2.7132E+02                    -1.7121E+02                    -0.0000E+00                    -0.0000E+00
    4.4250                     3.8496E-01                     1.3445E-01                     9.6719E-02                     6.6220E-02                     4.1706E-02                     4.1358E+00                    -2.6097E+00                     2.8147E+02                    -1.7761E+02                    -0.0000E+00                    -0.0000E+00
    4.4500                     3.8324E-01                     1.3606E-01                     9.7806E-02                     6.7195E-02                     4.0971E-02                     4.2403E+00                    -2.6757E+00                     2.9163E+02                    -1.8402E+02                    -0.0000E+00                    -0.0000E+00
    4.4750                     3.8152E-01                     1.3767E-01                     9.8893E-02                     6.8171E-02                     4.0237E-02                     4.3461E+00                    -2.7424E+00                     3.0178E+02                    -1.9042E+02                    -0.0000E+00                    -0.0000E+00
    4.5000                     3.7980E-01                     1.3927E-01                     9.9981E-02                     6.9146E-02                     3.9502E-02                     4.4532E+00                    -2.8100E+00                     3.1193E+02                    -1.9683E+02                    -0.0000E+00                    -0.0000E+00
    4.5250                     3.7399E-01                     1.4112E-01                     1.0084E-01                     7.0045E-02                     3.8380E-02                     4.6069E+00                    -2.9070E+00                     3.2326E+02                    -2.0398E+02                    -0.0000E+00                    -0.0000E+00
    4.5500                     3.6817E-01                     1.4296E-01                     1.0169E-01                     7.0943E-02                     3.7258E-02                     4.7631E+00                    -3.0056E+00                     3.3459E+02                    -2.1113E+02                    -0.0000E+00                    -0.0000E+00
    4.5750                     3.6235E-01                     1.4480E-01                     1.0255E-01                     7.1842E-02                     3.6136E-02                     4.9220E+00                    -3.1058E+00                     3.4592E+02                    -2.1828E+02                    -0.0000E+00                    -0.0000E+00
    4.6000                     3.5653E-01                     1.4665E-01                     1.0340E-01                     7.2740E-02                     3.5015E-02                     5.0835E+00                    -3.2078E+00                     3.5725E+02                    -2.2543E+02                    -0.0000E+00                    -0.0000E+00
    4.6250                     3.5071E-01                     1.4849E-01                     1.0426E-01                     7.3639E-02                     3.3893E-02                     5.2476E+00                    -3.3113E+00                     3.6858E+02                    -2.3258E+02                    -0.0000E+00                    -0.0000E+00
    4.6500                     3.4489E-01                     1.5033E-01                     1.0511E-01                     7.4537E-02                     3.2771E-02                     5.4144E+00                    -3.4165E+00                     3.7991E+02                    -2.3973E+02                    -0.0000E+00                    -0.0000E+00
    4.6750                     3.3907E-01                     1.5218E-01                     1.0597E-01                     7.5435E-02                     3.1649E-02                     5.5837E+00                    -3.5233E+00                     3.9125E+02                    -2.4688E+02                    -0.0000E+00                    -0.0000E+00
    4.7000                     3.3325E-01                     1.5402E-01                     1.0683E-01                     7.6334E-02                     3.0527E-02                     5.7556E+00                    -3.6318E+00                     4.0258E+02                    -2.5403E+02                    -0.0000E+00                    -0.0000E+00
    4.7250                     3.2743E-01                     1.5586E-01                     1.0768E-01                     7.7232E-02                     2.9406E-02                     5.9301E+00                    -3.7420E+00                     4.1391E+02                    -2.6118E+02                    -0.0000E+00                    -0.0000E+00
    4.7500                     3.2161E-01                     1.5771E-01                     1.0854E-01                     7.8131E-02                     2.8284E-02                     6.1073E+00                    -3.8537E+00                     4.2524E+02                    -2.6833E+02                    -0.0000E+00                    -0.0000E+00
    4.7750                     3.1344E-01                     1.5976E-01                     1.0906E-01                     7.8870E-02                     2.6752E-02                     6.3449E+00                    -4.0037E+00                     4.3727E+02                    -2.7592E+02                    -0.0000E+00                    -0.0000E+00
    4.8000                     3.0526E-01                     1.6181E-01                     1.0959E-01                     7.9610E-02                     2.5220E-02                     6.5871E+00                    -4.1565E+00                     4.4931E+02                    -2.8352E+02                    -0.0000E+00                    -0.0000E+00
    4.8250                     2.9709E-01                     1.6386E-01                     1.1011E-01                     8.0350E-02                     2.3688E-02                     6.8337E+00                    -4.3122E+00                     4.6134E+02                    -2.9111E+02                    -0.0000E+00                    -0.0000E+00
    4.8500                     2.8892E-01                     1.6591E-01                     1.1063E-01                     8.1089E-02                     2.2156E-02                     7.0850E+00                    -4.4707E+00                     4.7338E+02                    -2.9871E+02                    -0.0000E+00                    -0.0000E+00
    4.8750                     2.8075E-01                     1.6796E-01                     1.1116E-01                     8.1829E-02                     2.0624E-02                     7.3407E+00                    -4.6321E+00                     4.8542E+02                    -3.0630E+02                    -0.0000E+00                    -0.0000E+00
    4.9000                     2.7258E-01                     1.7001E-01                     1.1168E-01                     8.2568E-02                     1.9092E-02                     7.6011E+00                    -4.7963E+00                     4.9745E+02                    -3.1390E+02                    -0.0000E+00                    -0.0000E+00
    4.9250                     2.6441E-01                     1.7206E-01                     1.1221E-01                     8.3308E-02                     1.7560E-02                     7.8659E+00                    -4.9634E+00                     5.0949E+02                    -3.2149E+02                    -0.0000E+00                    -0.0000E+00
    4.9500                     2.5623E-01                     1.7411E-01                     1.1273E-01                     8.4047E-02                     1.6028E-02                     8.1353E+00                    -5.1334E+00                     5.2152E+02                    -3.2909E+02                    -0.0000E+00                    -0.0000E+00
    4.9750                     2.4806E-01                     1.7616E-01                     1.1326E-01                     8.4787E-02                     1.4497E-02                     8.4092E+00                    -5.3063E+00                     5.3356E+02                    -3.3668E+02                    -0.0000E+00                    -0.0000E+00
    5.0000                     2.3989E-01                     1.7821E-01                     1.1378E-01                     8.5527E-02                     1.2965E-02                     8.6876E+00                    -5.4820E+00                     5.4560E+02                    -3.4428E+02                    -0.0000E+00                    -0.0000E+00
    5.0250                     2.3981E-01                     1.8041E-01                     1.1387E-01                     8.6014E-02                     1.1019E-02                     9.0420E+00                    -5.7056E+00                     5.5769E+02                    -3.5191E+02                    -0.0000E+00                    -0.0000E+00
    5.0500                     2.3973E-01                     1.8262E-01                     1.1396E-01                     8.6501E-02                     9.0734E-03                     9.4036E+00                    -5.9337E+00                     5.6979E+02                    -3.5954E+02                    -0.0000E+00                    -0.0000E+00
    5.0750                     2.3965E-01                     1.8482E-01                     1.1405E-01                     8.6989E-02                     7.1278E-03                     9.7722E+00                    -6.1663E+00                     5.8189E+02                    -3.6718E+02                    -0.0000E+00                    -0.0000E+00
    5.1000                     2.3956E-01                     1.8703E-01                     1.1414E-01                     8.7476E-02                     5.1821E-03                     1.0148E+01                    -6.4034E+00                     5.9399E+02                    -3.7481E+02                    -0.0000E+00                    -0.0000E+00
    5.1250                     2.3948E-01                     1.8923E-01                     1.1423E-01                     8.7963E-02                     3.2365E-03                     1.0531E+01                    -6.6449E+00                     6.0608E+02                    -3.8244E+02                    -0.0000E+00                    -0.0000E+00
    5.1500                     2.3940E-01                     1.9144E-01                     1.1432E-01                     8.8451E-02                     1.2908E-03                     1.0921E+01                    -6.8909E+00                     6.1818E+02                    -3.9008E+02                    -0.0000E+00                    -0.0000E+00
    5.1750                     2.3932E-01                     1.9364E-01                     1.1441E-01                     8.8938E-02                    -6.5481E-04                     1.1317E+01                    -7.1414E+00                     6.3028E+02                    -3.9771E+02                    -0.0000E+00                    -0.0000E+00
    5.2000                     2.3924E-01                     1.9585E-01                     1.1450E-01                     8.9425E-02                    -2.6004E-03                     1.1721E+01                    -7.3964E+00                     6.4238E+02                    -4.0535E+02                    -0.0000E+00                    -0.0000E+00
    5.2250                     2.3915E-01                     1.9806E-01                     1.1458E-01                     8.9913E-02                    -4.5461E-03                     1.2133E+01                    -7.6558E+00                     6.5448E+02                    -4.1298E+02                    -0.0000E+00                    -0.0000E+00
    5.2500                     2.3907E-01                     2.0026E-01                     1.1467E-01                     9.0400E-02                    -6.4917E-03                     1.2551E+01                    -7.9197E+00                     6.6657E+02                    -4.2061E+02                    -0.0000E+00                    -0.0000E+00
    5.2750                     2.2883E-01                     2.0255E-01                     1.1423E-01                     9.0534E-02                    -8.8298E-03                     1.3060E+01                    -8.2408E+00                     6.7793E+02                    -4.2778E+02                    -0.0000E+00                    -0.0000E+00
    5.3000                     2.1859E-01                     2.0483E-01                     1.1378E-01                     9.0669E-02                    -1.1168E-02                     1.3579E+01                    -8.5683E+00                     6.8928E+02                    -4.3494E+02                    -0.0000E+00                    -0.0000E+00
    5.3250                     2.0834E-01                     2.0712E-01                     1.1333E-01                     9.0803E-02                    -1.3506E-02                     1.4108E+01                    -8.9022E+00                     7.0064E+02                    -4.4211E+02                    -0.0000E+00                    -0.0000E+00
    5.3500                     1.9810E-01                     2.0940E-01                     1.1289E-01                     9.0938E-02                    -1.5844E-02                     1.4647E+01                    -9.2424E+00                     7.1200E+02                    -4.4928E+02                    -0.0000E+00                    -0.0000E+00
    5.3750                     1.8786E-01                     2.1169E-01                     1.1244E-01                     9.1072E-02                    -1.8182E-02                     1.5196E+01                    -9.5891E+00                     7.2335E+02                    -4.5644E+02                    -0.0000E+00                    -0.0000E+00
    5.4000                     1.7761E-01                     2.1397E-01                     1.1199E-01                     9.1207E-02                    -2.0520E-02                     1.5756E+01                    -9.9421E+00                     7.3471E+02                    -4.6361E+02                    -0.0000E+00                    -0.0000E+00
    5.4250                     1.6737E-01                     2.1626E-01                     1.1155E-01                     9.1341E-02                    -2.2858E-02                     1.6325E+01                    -1.0301E+01                     7.4606E+02                    -4.7077E+02                    -0.0000E+00                    -0.0000E+00
    5.4500                     1.5713E-01                     2.1854E-01                     1.1110E-01                     9.1476E-02                    -2.5197E-02                     1.6905E+01                    -1.0667E+01                     7.5742E+02                    -4.7794E+02                    -0.0000E+00                    -0.0000E+00
    5.4750                     1.4688E-01                     2.2083E-01                     1.1065E-01                     9.1610E-02                    -2.7535E-02                     1.7495E+01                    -1.1039E+01                     7.6877E+02                    -4.8510E+02                    -0.0000E+00                    -0.0000E+00
    5.5000                     1.3664E-01                     2.2311E-01                     1.1021E-01                     9.1744E-02                    -2.9873E-02                     1.8095E+01                    -1.1418E+01                     7.8013E+02                    -4.9227E+02                    -0.0000E+00                    -0.0000E+00
    5.5250                     1.2476E-01                     2.2538E-01                     1.0913E-01                     9.1425E-02                    -3.2553E-02                     1.8795E+01                    -1.1860E+01                     7.8980E+02                    -4.9837E+02                    -0.0000E+00                    -0.0000E+00
    5.5500                     1.1289E-01                     2.2764E-01                     1.0806E-01                     9.1105E-02                    -3.5233E-02                     1.9508E+01                    -1.2310E+01                     7.9948E+02                    -5.0448E+02                    -0.0000E+00                    -0.0000E+00
    5.5750                     1.0101E-01                     2.2991E-01                     1.0698E-01                     9.0785E-02                    -3.7914E-02                     2.0235E+01                    -1.2768E+01                     8.0915E+02                    -5.1058E+02                    -0.0000E+00                    -0.0000E+00
    5.6000                     8.9132E-02                     2.3217E-01                     1.0590E-01                     9.0465E-02                    -4.0594E-02                     2.0975E+01                    -1.3235E+01                     8.1883E+02                    -5.1669E+02                    -0.0000E+00                    -0.0000E+00
[...]
   11.1000                    -1.1694E+00                    -7.8886E-01                    -4.1914E-02                    -6.7037E-02                     4.6737E-01                    -4.4597E+02                     2.8141E+02                    -2.5532E+03                     1.6111E+03                    -0.0000E+00                    -0.0000E+00
   11.1250                    -1.1968E+00                    -7.9030E-01                    -3.0112E-02                    -5.7029E-02                     4.7073E-01                    -4.5643E+02                     2.8801E+02                    -2.4975E+03                     1.5760E+03                    -0.0000E+00                    -0.0000E+00
   11.1500                    -1.2241E+00                    -7.9175E-01                    -1.8309E-02                    -4.7021E-02                     4.7409E-01                    -4.6702E+02                     2.9469E+02                    -2.4419E+03                     1.5409E+03                    -0.0000E+00                    -0.0000E+00
   11.1750                    -1.2515E+00                    -7.9319E-01                    -6.5055E-03                    -3.7013E-02                     4.7745E-01                    -4.7772E+02                     3.0145E+02                    -2.3863E+03                     1.5058E+03                    -0.0000E+00                    -0.0000E+00
   11.2000                    -1.2788E+00                    -7.9463E-01                     5.2973E-03                    -2.7005E-02                     4.8081E-01                    -4.8855E+02                     3.0828E+02                    -2.3307E+03                     1.4707E+03                    -0.0000E+00                    -0.0000E+00
   11.2250                    -1.3062E+00                    -7.9608E-01                     1.7101E-02                    -1.6997E-02                     4.8418E-01                    -4.9950E+02                     3.1519E+02                    -2.2750E+03                     1.4356E+03                    -0.0000E+00                    -0.0000E+00
   11.2500                    -1.3336E+00                    -7.9752E-01                     2.8903E-02                    -6.9891E-03                     4.8754E-01                    -5.1057E+02                     3.2217E+02                    -2.2194E+03                     1.4005E+03                    -0.0000E+00                    -0.0000E+00
   11.2750                    -1.3731E+00                    -7.9637E-01                     4.1329E-02                     3.6783E-03                     4.8912E-01                    -5.1898E+02                     3.2748E+02                    -2.1512E+03                     1.3574E+03                    -0.0000E+00                    -0.0000E+00
   11.3000                    -1.4127E+00                    -7.9522E-01                     5.3755E-02                     1.4346E-02                     4.9071E-01                    -5.2745E+02                     3.3283E+02                    -2.0830E+03                     1.3144E+03                    -0.0000E+00                    -0.0000E+00
   11.3250                    -1.4523E+00                    -7.9407E-01                     6.6180E-02                     2.5014E-02                     4.9229E-01                    -5.3600E+02                     3.3822E+02                    -2.0148E+03                     1.2714E+03                    -0.0000E+00                    -0.0000E+00
   11.3500                    -1.4919E+00                    -7.9292E-01                     7.8606E-02                     3.5682E-02                     4.9388E-01                    -5.4462E+02                     3.4366E+02                    -1.9466E+03                     1.2283E+03                    -0.0000E+00                    -0.0000E+00
   11.3750                    -1.5315E+00                    -7.9177E-01                     9.1032E-02                     4.6349E-02                     4.9547E-01                    -5.5330E+02                     3.4914E+02                    -1.8784E+03                     1.1853E+03                    -0.0000E+00                    -0.0000E+00
   11.4000                    -1.5710E+00                    -7.9062E-01                     1.0346E-01                     5.7016E-02                     4.9705E-01                    -5.6206E+02                     3.5466E+02                    -1.8102E+03                     1.1423E+03                    -0.0000E+00                    -0.0000E+00
   11.4250                    -1.6106E+00                    -7.8948E-01                     1.1588E-01                     6.7684E-02                     4.9864E-01                    -5.7088E+02                     3.6023E+02                    -1.7421E+03                     1.0993E+03                    -0.0000E+00                    -0.0000E+00
   11.4500                    -1.6502E+00                    -7.8833E-01                     1.2831E-01                     7.8352E-02                     5.0022E-01                    -5.7977E+02                     3.6584E+02                    -1.6739E+03                     1.0562E+03                    -0.0000E+00                    -0.0000E+00
   11.4750                    -1.6898E+00                    -7.8718E-01                     1.4073E-01                     8.9020E-02                     5.0181E-01                    -5.8873E+02                     3.7150E+02                    -1.6057E+03                     1.0132E+03                    -0.0000E+00                    -0.0000E+00
   11.5000                    -1.7294E+00                    -7.8603E-01                     1.5316E-01                     9.9687E-02                     5.0340E-01                    -5.9776E+02                     3.7719E+02                    -1.5375E+03                     9.7017E+02                    -0.0000E+00                    -0.0000E+00
   11.5250                    -1.7667E+00                    -7.8217E-01                     1.6574E-01                     1.1059E-01                     5.0305E-01                    -6.0331E+02                     3.8069E+02                    -1.4590E+03                     9.2064E+02                    -0.0000E+00                    -0.0000E+00
   11.5500                    -1.8041E+00                    -7.7832E-01                     1.7833E-01                     1.2150E-01                     5.0270E-01                    -6.0888E+02                     3.8421E+02                    -1.3805E+03                     8.7112E+02                    -0.0000E+00                    -0.0000E+00
   11.5750                    -1.8414E+00                    -7.7446E-01                     1.9091E-01                     1.3241E-01                     5.0235E-01                    -6.1447E+02                     3.8774E+02                    -1.3020E+03                     8.2160E+02                    -0.0000E+00                    -0.0000E+00
   11.6000                    -1.8788E+00                    -7.7061E-01                     2.0349E-01                     1.4331E-01                     5.0201E-01                    -6.2010E+02                     3.9129E+02                    -1.2235E+03                     7.7207E+02                    -0.0000E+00                    -0.0000E+00
   11.6250                    -1.9162E+00                    -7.6675E-01                     2.1607E-01                     1.5422E-01                     5.0166E-01                    -6.2574E+02                     3.9485E+02                    -1.1451E+03                     7.2255E+02                    -0.0000E+00                    -0.0000E+00
   11.6500                    -1.9535E+00                    -7.6290E-01                     2.2866E-01                     1.6513E-01                     5.0131E-01                    -6.3142E+02                     3.9843E+02                    -1.0666E+03                     6.7302E+02                    -0.0000E+00                    -0.0000E+00
   11.6750                    -1.9909E+00                    -7.5904E-01                     2.4124E-01                     1.7604E-01                     5.0096E-01                    -6.3712E+02                     4.0203E+02                    -9.8810E+02                     6.2350E+02                    -0.0000E+00                    -0.0000E+00
   11.7000                    -2.0283E+00                    -7.5519E-01                     2.5382E-01                     1.8694E-01                     5.0061E-01                    -6.4284E+02                     4.0564E+02                    -9.0961E+02                     5.7397E+02                    -0.0000E+00                    -0.0000E+00
   11.7250                    -2.0656E+00                    -7.5133E-01                     2.6641E-01                     1.9785E-01                     5.0027E-01                    -6.4859E+02                     4.0927E+02                    -8.3113E+02                     5.2445E+02                    -0.0000E+00                    -0.0000E+00
   11.7500                    -2.1030E+00                    -7.4748E-01                     2.7899E-01                     2.0876E-01                     4.9992E-01                    -6.5437E+02                     4.1291E+02                    -7.5264E+02                     4.7493E+02                    -0.0000E+00                    -0.0000E+00
   11.7750                    -2.1415E+00                    -7.4091E-01                     2.9123E-01                     2.1945E-01                     4.9757E-01                    -6.5601E+02                     4.1395E+02                    -6.6674E+02                     4.2072E+02                    -0.0000E+00                    -0.0000E+00
   11.8000                    -2.1800E+00                    -7.3435E-01                     3.0348E-01                     2.3015E-01                     4.9522E-01                    -6.5766E+02                     4.1499E+02                    -5.8082E+02                     3.6651E+02                    -0.0000E+00                    -0.0000E+00
   11.8250                    -2.2185E+00                    -7.2778E-01                     3.1573E-01                     2.4084E-01                     4.9287E-01                    -6.5932E+02                     4.1603E+02                    -4.9492E+02                     3.1230E+02                    -0.0000E+00                    -0.0000E+00
   11.8500                    -2.2570E+00                    -7.2122E-01                     3.2797E-01                     2.5154E-01                     4.9052E-01                    -6.6097E+02                     4.1708E+02                    -4.0900E+02                     2.5808E+02                    -0.0000E+00                    -0.0000E+00
   11.8750                    -2.2955E+00                    -7.1465E-01                     3.4022E-01                     2.6223E-01                     4.8817E-01                    -6.6263E+02                     4.1812E+02                    -3.2309E+02                     2.0388E+02                    -0.0000E+00                    -0.0000E+00
   11.9000                    -2.3340E+00                    -7.0809E-01                     3.5246E-01                     2.7293E-01                     4.8582E-01                    -6.6429E+02                     4.1917E+02                    -2.3719E+02                     1.4967E+02                    -0.0000E+00                    -0.0000E+00
   11.9250                    -2.3726E+00                    -7.0152E-01                     3.6471E-01                     2.8363E-01                     4.8347E-01                    -6.6595E+02                     4.2022E+02                    -1.5127E+02                     9.5455E+01                    -0.0000E+00                    -0.0000E+00
   11.9500                    -2.4111E+00                    -6.9496E-01                     3.7696E-01                     2.9432E-01                     4.8111E-01                    -6.6761E+02                     4.2127E+02                    -6.5365E+01                     4.1246E+01                    -0.0000E+00                    -0.0000E+00
   11.9750                    -2.4496E+00                    -6.8839E-01                     3.8920E-01                     3.0502E-01                     4.7876E-01                    -6.6927E+02                     4.2232E+02                     2.0546E+01                    -1.2965E+01                    -0.0000E+00                    -0.0000E+00
   12.0000                    -2.4881E+00                    -6.8183E-01                     4.0145E-01                     3.1571E-01                     4.7641E-01                    -6.7094E+02                     4.2337E+02                     1.0646E+02                    -6.7174E+01                    -0.0000E+00                    -0.0000E+00
   12.0250                    -2.5193E+00                    -6.7266E-01                     4.1286E-01                     3.2574E-01                     4.7209E-01                    -6.6812E+02                     4.2159E+02                     1.9645E+02                    -1.2396E+02                    -0.0000E+00                    -0.0000E+00
   12.0500                    -2.5506E+00                    -6.6350E-01                     4.2427E-01                     3.3577E-01                     4.6776E-01                    -6.6531E+02                     4.1982E+02                     2.8645E+02                    -1.8075E+02                    -0.0000E+00                    -0.0000E+00
   12.0750                    -2.5818E+00                    -6.5433E-01                     4.3568E-01                     3.4579E-01                     4.6343E-01                    -6.6251E+02                     4.1805E+02                     3.7644E+02                    -2.3754E+02                    -0.0000E+00                    -0.0000E+00
   12.1000                    -2.6131E+00                    -6.4517E-01                     4.4709E-01                     3.5582E-01                     4.5910E-01                    -6.5971E+02                     4.1628E+02                     4.6644E+02                    -2.9433E+02                    -0.0000E+00                    -0.0000E+00
   12.1250                    -2.6444E+00                    -6.3600E-01                     4.5850E-01                     3.6585E-01                     4.5477E-01                    -6.5691E+02                     4.1452E+02                     5.5644E+02                    -3.5112E+02                    -0.0000E+00                    -0.0000E+00
   12.1500                    -2.6756E+00                    -6.2684E-01                     4.6991E-01                     3.7587E-01                     4.5044E-01                    -6.5413E+02                     4.1276E+02                     6.4643E+02                    -4.0790E+02                    -0.0000E+00                    -0.0000E+00
   12.1750                    -2.7069E+00                    -6.1767E-01                     4.8131E-01                     3.8590E-01                     4.4611E-01                    -6.5135E+02                     4.1100E+02                     7.3643E+02                    -4.6469E+02                    -0.0000E+00                    -0.0000E+00
   12.2000                    -2.7381E+00                    -6.0851E-01                     4.9272E-01                     3.9593E-01                     4.4179E-01                    -6.4857E+02                     4.0925E+02                     8.2642E+02                    -5.2148E+02                    -0.0000E+00                    -0.0000E+00
   12.2250                    -2.7694E+00                    -5.9934E-01                     5.0413E-01                     4.0596E-01                     4.3746E-01                    -6.4580E+02                     4.0751E+02                     9.1642E+02                    -5.7827E+02                    -0.0000E+00                    -0.0000E+00
   12.2500                    -2.8006E+00                    -5.9018E-01                     5.1554E-01                     4.1598E-01                     4.3313E-01                    -6.4304E+02                     4.0576E+02                     1.0064E+03                    -6.3506E+02                    -0.0000E+00                    -0.0000E+00
   12.2750                    -2.8176E+00                    -5.7864E-01                     5.2564E-01                     4.2490E-01                     4.2694E-01                    -6.3579E+02                     4.0119E+02                     1.0969E+03                    -6.9212E+02                    -0.0000E+00                    -0.0000E+00
   12.3000                    -2.8345E+00                    -5.6709E-01                     5.3573E-01                     4.3381E-01                     4.2075E-01                    -6.2858E+02                     3.9664E+02                     1.1873E+03                    -7.4919E+02                    -0.0000E+00                    -0.0000E+00
   12.3250                    -2.8514E+00                    -5.5555E-01                     5.4582E-01                     4.4273E-01                     4.1457E-01                    -6.2142E+02                     3.9212E+02                     1.2777E+03                    -8.0625E+02                    -0.0000E+00                    -0.0000E+00
   12.3500                    -2.8683E+00                    -5.4401E-01                     5.5591E-01                     4.5165E-01                     4.0838E-01                    -6.1429E+02                     3.8762E+02                     1.3682E+03                    -8.6332E+02                    -0.0000E+00                    -0.0000E+00
   12.3750                    -2.8853E+00                    -5.3247E-01                     5.6600E-01                     4.6056E-01                     4.0219E-01                    -6.0721E+02                     3.8316E+02                     1.4586E+03                    -9.2039E+02                    -0.0000E+00                    -0.0000E+00
   12.4000                    -2.9022E+00                    -5.2093E-01                     5.7609E-01                     4.6948E-01                     3.9600E-01                    -6.0017E+02                     3.7871E+02                     1.5490E+03                    -9.7745E+02                    -0.0000E+00                    -0.0000E+00
   12.4250                    -2.9191E+00                    -5.0939E-01                     5.8619E-01                     4.7840E-01                     3.8982E-01                    -5.9317E+02                     3.7429E+02                     1.6395E+03                    -1.0345E+03                    -0.0000E+00                    -0.0000E+00
   12.4500                    -2.9361E+00                    -4.9784E-01                     5.9628E-01                     4.8731E-01                     3.8363E-01                    -5.8621E+02                     3.6990E+02                     1.7299E+03                    -1.0916E+03                    -0.0000E+00                    -0.0000E+00
   12.4750                    -2.9530E+00                    -4.8630E-01                     6.0637E-01                     4.9623E-01                     3.7744E-01                    -5.7929E+02                     3.6554E+02                     1.8203E+03                    -1.1486E+03                    -0.0000E+00                    -0.0000E+00
