
These predictions were generated by HydroDyn on 10-Jul-2022 at 11:37:13.




    Time                       HydroFxi                       HydroFyi                       HydroFzi                       HydroMxi                       HydroMyi                       HydroMzi                        M1N1Vxi                        M1N1Vzi                        M1N1Axi                        M1N1Azi                       M1N1FDxi                       M1N1FDzi                       M1N1FIxi                       M1N1FIzi
   (sec)                            (N)                            (N)                            (N)                          (N-m)                          (N-m)                          (N-m)                          (m/s)                          (m/s)                        (m/s^2)                        (m/s^2)                          (N/m)                          (N/m)                          (N/m)                          (N/m)
    0.0000                      6.49483740E+05                      8.21337356E-10                      9.01447411E+06                      3.27955764E-08                     -9.45564125E+06                     -3.79279941E-08                      1.08906615E+00                     -4.94341731E-01                     -3.93907428E-01                     -5.39569139E-01                      1.50592864E+03                     -9.50254663E+02                     -3.76924435E+02                      2.37842746E+02
    0.0250                      6.03786033E+05                      6.08779520E-10                      9.01268424E+06                      3.61834914E-08                     -8.56944765E+06                     -3.91891380E-08                      1.07791809E+00                     -5.07166946E-01                     -4.04126969E-01                     -5.34045923E-01                      1.49936770E+03                     -9.46114653E+02                     -4.73597223E+02                      2.98844154E+02
    0.0500                      5.58116958E+05                      9.52580029E-10                      9.01090035E+06                      2.32311785E-08                     -7.68392979E+06                     -3.80858539E-08                      1.06677004E+00                     -5.19992161E-01                     -4.14346510E-01                     -5.28522706E-01                      1.49282109E+03                     -9.41983682E+02                     -5.70270012E+02                      3.59845563E+02
    0.0750                      5.12476518E+05                      7.52165257E-10                      9.00912233E+06                      4.67592330E-08                     -6.79908742E+06                     -3.85993321E-08                      1.05562199E+00                     -5.32817377E-01                     -4.24566053E-01                     -5.22999489E-01                      1.48628880E+03                     -9.37861748E+02                     -6.66942807E+02                      4.20846976E+02
    0.1000                      4.66864731E+05                      7.75746654E-10                      9.00735008E+06                      3.00148147E-08                     -5.91492055E+06                     -3.86964766E-08                      1.04447393E+00                     -5.45642591E-01                     -4.34785593E-01                     -5.17476272E-01                      1.47977084E+03                     -9.33748853E+02                     -7.63615588E+02                      4.81848380E+02
    0.1250                      4.21281595E+05                      6.53394439E-10                      9.00558350E+06                      3.18085188E-08                     -5.03142885E+06                     -4.03531375E-08                      1.03332588E+00                     -5.58467805E-01                     -4.45005134E-01                     -5.11953056E-01                      1.47326719E+03                     -9.29644996E+02                     -8.60288369E+02                      5.42849784E+02
    0.1500                      3.75727101E+05                      5.76687136E-10                      9.00382247E+06                      3.59475690E-08                     -4.14861183E+06                     -3.88387781E-08                      1.02217782E+00                     -5.71293023E-01                     -4.55224677E-01                     -5.06429838E-01                      1.46677787E+03                     -9.25550176E+02                     -9.56961179E+02                      6.03851206E+02
    0.1750                      3.30201292E+05                      9.89009222E-10                      9.00206690E+06                      2.63224558E-08                     -3.26647005E+06                     -3.75342118E-08                      1.01102978E+00                     -5.84118234E-01                     -4.65444215E-01                     -5.00906623E-01                      1.46030288E+03                     -9.21464397E+02                     -1.05363393E+03                      6.64852591E+02
    0.2000                      2.84704114E+05                      7.89082341E-10                      9.00031666E+06                      3.00286925E-08                     -2.38500221E+06                     -3.64361319E-08                      9.99881719E-01                     -5.96943452E-01                     -4.75663759E-01                     -4.95383405E-01                      1.45384221E+03                     -9.17387654E+02                     -1.15030674E+03                      7.25854013E+02
    0.2250                      2.39235622E+05                      4.85234682E-10                      8.99857166E+06                      3.29456300E-08                     -1.50420909E+06                     -3.99315997E-08                      9.88733670E-01                     -6.09768662E-01                     -4.85883296E-01                     -4.89860190E-01                      1.44739586E+03                     -9.13319951E+02                     -1.24697949E+03                      7.86855399E+02
    0.2500                      1.93795760E+05                      8.03339600E-10                      8.99683177E+06                      2.39215985E-08                     -6.24089352E+05                     -3.99541240E-08                      9.77585614E-01                     -6.22593880E-01                     -4.96102840E-01                     -4.84336972E-01                      1.44096384E+03                     -9.09261284E+02                     -1.34365230E+03                      8.47856821E+02
    0.2750                      1.46469585E+05                      1.04706825E-09                      8.99478902E+06                      2.03949057E-08                      2.79315202E+05                     -3.79765934E-08                      9.64030406E-01                     -6.33886048E-01                     -5.05100810E-01                     -4.77621157E-01                      1.42747438E+03                     -9.00749314E+02                     -1.43701656E+03                      9.06770517E+02
    0.3000                      9.91817779E+04                      8.59067591E-10                      8.99275665E+06                      3.68713092E-08                      1.18196067E+06                     -3.99662671E-08                      9.50475198E-01                     -6.45178216E-01                     -5.14098780E-01                     -4.70905342E-01                      1.41404836E+03                     -8.92277375E+02                     -1.53038082E+03                      9.65684213E+02
    0.3250                      5.19323478E+04                      7.94557562E-10                      8.99073451E+06                      2.96938908E-08                      2.08384631E+06                     -3.83044020E-08                      9.36920006E-01                     -6.56470371E-01                     -5.23096739E-01                     -4.64189536E-01                      1.40068580E+03                     -8.83845475E+02                     -1.62374497E+03                      1.02459784E+03
    0.3500                      4.72117385E+03                      6.67218017E-10                      8.98872245E+06                      3.06783464E-08                      2.98497463E+06                     -3.79245246E-08                      9.23364797E-01                     -6.67762539E-01                     -5.32094709E-01                     -4.57473721E-01                      1.38738665E+03                     -8.75453595E+02                     -1.71710923E+03                      1.08351153E+03
    0.3750                     -4.24516979E+04                      7.72114577E-10                      8.98672035E+06                      4.30911603E-08                      3.88534495E+06                     -3.77024800E-08                      9.09809589E-01                     -6.79054707E-01                     -5.41092679E-01                     -4.50757906E-01                      1.37415095E+03                     -8.67101744E+02                     -1.81047348E+03                      1.14242523E+03
    0.4000                     -8.95862796E+04                      8.64597022E-10                      8.98472809E+06                      3.10556488E-08                      4.78495765E+06                     -3.64361319E-08                      8.96254381E-01                     -6.90346875E-01                     -5.50090649E-01                     -4.44042091E-01                      1.36097868E+03                     -8.58789923E+02                     -1.90383774E+03                      1.20133893E+03
    0.4250                     -1.36682586E+05                      7.92605998E-10                      8.98274555E+06                      2.78186548E-08                      5.68381316E+06                     -3.81673859E-08                      8.82699173E-01                     -7.01639044E-01                     -5.59088619E-01                     -4.37326276E-01                      1.34786985E+03                     -8.50518131E+02                     -1.99720200E+03                      1.26025262E+03
    0.4500                     -1.83740577E+05                      7.06574556E-10                      8.98077258E+06                      3.63109935E-08                      6.58191085E+06                     -4.01275963E-08                      8.69143981E-01                     -7.12931198E-01                     -5.68086578E-01                     -4.30610469E-01                      1.33482447E+03                     -8.42286379E+02                     -2.09056615E+03                      1.31916625E+03
    0.4750                     -2.30760384E+05                      8.42208248E-10                      8.97880905E+06                      2.52807543E-08                      7.47925335E+06                     -3.99003747E-08                      8.55588773E-01                     -7.24223367E-01                     -5.77084548E-01                     -4.23894654E-01                      1.32184251E+03                     -8.34094646E+02                     -2.18393041E+03                      1.37807994E+03
    0.5000                     -2.77741973E+05                      5.07298197E-10                      8.97685481E+06                      3.99790663E-08                      8.37584005E+06                     -3.84432070E-08                      8.42033565E-01                     -7.35515535E-01                     -5.86082518E-01                     -4.17178839E-01                      1.30892400E+03                     -8.25942944E+02                     -2.27729466E+03                      1.43699364E+03
    0.5250                     -3.25353369E+05                      5.94034370E-10                      8.97467774E+06                      3.20305634E-08                      9.27248960E+06                     -3.99021094E-08                      8.26405016E-01                     -7.44996628E-01                     -5.93637352E-01                     -4.09435798E-01                      1.28966263E+03                     -8.13788847E+02                     -2.36505139E+03                      1.49236893E+03
    0.5500                     -3.72904970E+05                      9.37130148E-10                      8.97251470E+06                      2.42945640E-08                      1.01681212E+07                     -3.99090415E-08                      8.10776429E-01                     -7.54477744E-01                     -6.01192204E-01                     -4.01692738E-01                      1.27054399E+03                     -8.01724813E+02                     -2.45280833E+03                      1.54774436E+03
    0.5750                     -4.20396578E+05                      7.20723394E-10                      8.97036554E+06                      3.15786679E-08                      1.10627311E+07                     -3.99576002E-08                      7.95147879E-01                     -7.63958837E-01                     -6.08747038E-01                     -3.93949697E-01                      1.25156817E+03                     -7.89750898E+02                     -2.54056506E+03                      1.60311965E+03
    0.6000                     -4.67828453E+05                      9.57838409E-10                      8.96823010E+06                      3.80968914E-08                      1.19563243E+07                     -3.98119173E-08                      7.79519293E-01                     -7.73439953E-01                     -6.16301889E-01                     -3.86206637E-01                      1.23273508E+03                     -7.77867045E+02                     -2.62832200E+03                      1.65849508E+03
    0.6250                     -5.15200406E+05                      8.28601510E-10                      8.96610822E+06                      2.62695467E-08                      1.28488971E+07                     -3.82176929E-08                      7.63890743E-01                     -7.82921046E-01                     -6.23856723E-01                     -3.78463596E-01                      1.21404480E+03                     -7.66073311E+02                     -2.71607873E+03                      1.71387037E+03
    0.6500                     -5.62512592E+05                      7.74770872E-10                      8.96399974E+06                      3.55980222E-08                      1.37404524E+07                     -3.81743350E-08                      7.48262194E-01                     -7.92402139E-01                     -6.31411557E-01                     -3.70720555E-01                      1.19549730E+03                     -7.54369667E+02                     -2.80383546E+03                      1.76924567E+03
    0.6750                     -6.09765170E+05                      8.55218674E-10                      8.96190447E+06                      3.36473256E-08                      1.46309930E+07                     -4.00270078E-08                      7.32633607E-01                     -8.01883255E-01                     -6.38966409E-01                     -3.62977495E-01                      1.17709252E+03                     -7.42756086E+02                     -2.89159240E+03                      1.82462109E+03
    0.7000                     -6.56957964E+05                      8.22204718E-10                      8.95982223E+06                      4.34493806E-08                      1.55205155E+07                     -3.82836124E-08                      7.17005058E-01                     -8.11364348E-01                     -6.46521243E-01                     -3.55234454E-01                      1.15883056E+03                     -7.31232623E+02                     -2.97934912E+03                      1.87999639E+03
    0.7250                     -7.04091257E+05                      7.45280573E-10                      8.95775284E+06                      3.14763192E-08                      1.64090251E+07                     -3.63719437E-08                      7.01376471E-01                     -8.20845464E-01                     -6.54076095E-01                     -3.47491394E-01                      1.14071133E+03                     -7.19799224E+02                     -3.06710606E+03                      1.93537181E+03
    0.7500                     -7.51164891E+05                      9.79630873E-10                      8.95569610E+06                      3.36013555E-08                      1.72965187E+07                     -4.00807995E-08                      6.85747921E-01                     -8.30326557E-01                     -6.61630929E-01                     -3.39748353E-01                      1.12273492E+03                     -7.08455942E+02                     -3.15486279E+03                      1.99074711E+03
    0.7750                     -7.97541791E+05                      7.75312974E-10                      8.95349404E+06                      1.81388978E-08                      1.81600503E+07                     -3.64968540E-08                      6.68430834E-01                     -8.37763094E-01                     -6.67556608E-01                     -3.31168737E-01                      1.09942306E+03                     -6.93745947E+02                     -3.23485121E+03                      2.04122053E+03
    0.8000                     -8.43828189E+05                      8.68554360E-10                      8.95130807E+06                      4.15030209E-08                      1.90221644E+07                     -3.83131027E-08                      6.51113705E-01                     -8.45199648E-01                     -6.73482302E-01                     -3.22589101E-01                      1.07635571E+03                     -6.79190239E+02                     -3.31483982E+03                      2.09169407E+03
    0.8250                     -8.90023949E+05                      7.33625400E-10                      8.94913797E+06                      2.98777715E-08                      1.98828580E+07                     -3.82437273E-08                      6.33796617E-01                     -8.52636185E-01                     -6.79407981E-01                     -3.14009486E-01                      1.05353298E+03                     -6.64788887E+02                     -3.39482824E+03                      2.14216749E+03
    0.8500                     -9.36130808E+05                      6.21031004E-10                      8.94698335E+06                      3.08934521E-08                      2.07421949E+07                     -3.81899238E-08                      6.16479488E-01                     -8.60072739E-01                     -6.85333675E-01                     -3.05429850E-01                      1.03095475E+03                     -6.50541824E+02                     -3.47481685E+03                      2.19264103E+03
    0.8750                     -9.82157225E+05                      5.03232438E-10                      8.94484363E+06                      3.54028658E-08                      2.16005155E+07                     -3.82038151E-08                      5.99162400E-01                     -8.67509276E-01                     -6.91259354E-01                     -2.96850234E-01                      1.00862115E+03                     -6.36449115E+02                     -3.55480527E+03                      2.24311445E+03
    0.9000                     -1.02810486E+06                      8.27571518E-10                      8.94271854E+06                      2.73979843E-08                      2.24578806E+07                     -4.00513092E-08                      5.81845312E-01                     -8.74945812E-01                     -6.97185034E-01                     -2.88270619E-01                      9.86532105E+02                     -6.22510729E+02                     -3.63479369E+03                      2.29358787E+03
    0.9250                     -1.07397394E+06                      8.81890047E-10                      8.94060782E+06                      3.55182249E-08                      2.33142943E+07                     -3.83460624E-08                      5.64528183E-01                     -8.82382367E-01                     -7.03110728E-01                     -2.79690983E-01                      9.64687573E+02                     -6.08726631E+02                     -3.71478229E+03                      2.34406141E+03
    0.9500                     -1.11976438E+06                      7.29559642E-10                      8.93851122E+06                      2.37351157E-08                      2.41697551E+07                     -3.82419790E-08                      5.47211095E-01                     -8.89818903E-01                     -7.09036407E-01                     -2.71111367E-01                      9.43087657E+02                     -5.95096887E+02                     -3.79477071E+03                      2.39453483E+03
    0.9750                     -1.16547654E+06                      1.06983649E-09                      8.93642845E+06                      2.35148058E-08                      2.50242694E+07                     -3.82714693E-08                      5.29893966E-01                     -8.97255458E-01                     -7.14962101E-01                     -2.62531731E-01                      9.21732254E+02                     -5.81621434E+02                     -3.87475932E+03                      2.44500837E+03
    1.0000                     -1.21111035E+06                      8.40365104E-10                      8.93435927E+06                      3.53829165E-08                      2.58778361E+07                     -3.83530013E-08                      5.12576878E-01                     -9.04691994E-01                     -7.20887780E-01                     -2.53952116E-01                      9.00621465E+02                     -5.68300334E+02                     -3.95474774E+03                      2.49548179E+03
    1.0250                     -1.25471503E+06                      9.37130148E-10                      8.93221431E+06                      4.77471581E-08                      2.66838753E+07                     -3.83044291E-08                      4.93997660E-01                     -9.09900899E-01                     -7.25038399E-01                     -2.44747187E-01                      8.75377149E+02                     -5.52370941E+02                     -4.02499829E+03                      2.53981052E+03
    1.0500                     -1.29820312E+06                      8.48442410E-10                      8.93008501E+06                      3.36473256E-08                      2.74884274E+07                     -3.78586051E-08                      4.75418442E-01                     -9.15109803E-01                     -7.29189018E-01                     -2.35542258E-01                      8.50491679E+02                     -5.36667983E+02                     -4.09524883E+03                      2.58413925E+03
    1.0750                     -1.34157502E+06                      6.00214323E-10                      8.92797104E+06                      3.29204765E-08                      2.82914996E+07                     -3.82367749E-08                      4.56839136E-01                     -9.20318733E-01                     -7.33339657E-01                     -2.26337286E-01                      8.25964937E+02                     -5.21191386E+02                     -4.16549971E+03                      2.62846819E+03
    1.1000                     -1.38483065E+06                      6.23958350E-10                      8.92587219E+06                      3.41104968E-08                      2.90930957E+07                     -4.00582345E-08                      4.38259918E-01                     -9.25527637E-01                     -7.37490276E-01                     -2.17132357E-01                      8.01797157E+02                     -5.05941297E+02                     -4.23575025E+03                      2.67279693E+03
    1.1250                     -1.42797055E+06                      8.92732069E-10                      8.92378818E+06                      3.93875256E-08                      2.98932286E+07                     -3.83287152E-08                      4.19680700E-01                     -9.30736542E-01                     -7.41640896E-01                     -2.07927428E-01                      7.77988222E+02                     -4.90917643E+02                     -4.30600080E+03                      2.71712566E+03
    1.1500                     -1.47099500E+06                      8.67849629E-10                      8.92171867E+06                      3.90475198E-08                      3.06919051E+07                     -3.85646376E-08                      4.01101482E-01                     -9.35945446E-01                     -7.45791515E-01                     -1.98722499E-01                      7.54538132E+02                     -4.76120422E+02                     -4.37625134E+03                      2.76145439E+03
    1.1750                     -1.51390463E+06                      8.68066469E-10                      8.91966353E+06                      3.13904504E-08                      3.14891493E+07                     -3.78811565E-08                      3.82522264E-01                     -9.41154351E-01                     -7.49942134E-01                     -1.89517571E-01                      7.31446886E+02                     -4.61549636E+02                     -4.44650189E+03                      2.80578312E+03
    1.2000                     -1.55669998E+06                      9.94321812E-10                      8.91762242E+06                      3.36794180E-08                      3.22849730E+07                     -3.81118748E-08                      3.63942957E-01                     -9.46363280E-01                     -7.54092773E-01                     -1.80312598E-01                      7.08714378E+02                     -4.47205217E+02                     -4.51675277E+03                      2.85011207E+03
    1.2250                     -1.59938112E+06                      8.40636154E-10                      8.91559505E+06                      3.05681915E-08                      3.30793830E+07                     -4.01345623E-08                      3.45363739E-01                     -9.51572185E-01                     -7.58243392E-01                     -1.71107669E-01                      6.86340824E+02                     -4.33087301E+02                     -4.58700331E+03                      2.89444080E+03
    1.2500                     -1.64194889E+06                      8.75005363E-10                      8.91358120E+06                      3.87422085E-08                      3.38724046E+07                     -3.80546289E-08                      3.26784521E-01                     -9.56781089E-01                     -7.62394011E-01                     -1.61902741E-01                      6.64326114E+02                     -4.19195819E+02                     -4.65725386E+03                      2.93876953E+03
    1.2750                     -1.68118477E+06                      8.78637441E-10                      8.91155166E+06                      3.04701796E-08                      3.45947442E+07                     -4.01258887E-08                      3.07400628E-01                     -9.59634075E-01                     -7.64667360E-01                     -1.52299151E-01                      6.39456421E+02                     -4.03502816E+02                     -4.71603668E+03                      2.97586203E+03
    1.3000                     -1.72026603E+06                      9.05037763E-10                      8.90953616E+06                      2.67700144E-08                      3.53150921E+07                     -3.83547361E-08                      2.88016735E-01                     -9.62487060E-01                     -7.66940709E-01                     -1.42695561E-01                      6.15061161E+02                     -3.88109186E+02                     -4.77481951E+03                      3.01295453E+03
    1.3250                     -1.75919368E+06                      8.58904961E-10                      8.90753401E+06                      4.01395283E-08                      3.60334658E+07                     -3.85611681E-08                      2.68632749E-01                     -9.65340059E-01                     -7.69214068E-01                     -1.33091926E-01                      5.91140222E+02                     -3.73014856E+02                     -4.83360262E+03                      3.05004721E+03
    1.3500                     -1.79796797E+06                      7.94394932E-10                      8.90554472E+06                      2.76443151E-08                      3.67498715E+07                     -4.00408873E-08                      2.49248856E-01                     -9.68193045E-01                     -7.71487417E-01                     -1.23488337E-01                      5.67693832E+02                     -3.58219970E+02                     -4.89238545E+03                      3.08713970E+03
    1.3750                     -1.83658993E+06                      1.02332422E-09                      8.90356796E+06                      3.67177862E-08                      3.74643380E+07                     -4.08076350E-08                      2.29864962E-01                     -9.71046031E-01                     -7.73760766E-01                     -1.13884747E-01                      5.44721875E+02                     -3.43724456E+02                     -4.95116828E+03                      3.12423220E+03
    1.4000                     -1.87506012E+06                      8.18681060E-10                      8.90160319E+06                      4.28465642E-08                      3.81768741E+07                     -3.64760305E-08                      2.10481069E-01                     -9.73899016E-01                     -7.76034115E-01                     -1.04281157E-01                      5.22224351E+02                     -3.29528314E+02                     -5.00995110E+03                      3.16132470E+03
    1.4250                     -1.91337944E+06                      8.36082505E-10                      8.89965002E+06                      2.03116389E-08                      3.88875049E+07                     -3.60700510E-08                      1.91097176E-01                     -9.76752002E-01                     -7.78307463E-01                     -9.46775679E-02                      5.00201260E+02                     -3.15631544E+02                     -5.06873393E+03                      3.19841720E+03
    1.4500                     -1.95154885E+06                      1.01665638E-09                      8.89770792E+06                      3.48538258E-08                      3.95962504E+07                     -3.80702414E-08                      1.71713190E-01                     -9.79605001E-01                     -7.80580823E-01                     -8.50739326E-02                      4.78652502E+02                     -3.02034081E+02                     -5.12751704E+03                      3.23550988E+03
    1.4750                     -1.98956879E+06                      6.74482172E-10                      8.89577631E+06                      3.21320447E-08                      4.03031193E+07                     -3.81812637E-08                      1.52329297E-01                     -9.82457986E-01                     -7.82854172E-01                     -7.54703430E-02                      4.57578280E+02                     -2.88736055E+02                     -5.18629987E+03                      3.27260238E+03
    1.5000                     -2.02744053E+06                      8.70072243E-10                      8.89385474E+06                      4.11144429E-08                      4.10081430E+07                     -3.82593263E-08                      1.32945403E-01                     -9.85310972E-01                     -7.85127521E-01                     -6.58667535E-02                      4.36978492E+02                     -2.75737402E+02                     -5.24508270E+03                      3.30969488E+03
    1.5250                     -2.06078303E+06                      6.56863886E-10                      8.89196430E+06                      3.94803333E-08                      4.16211651E+07                     -4.04606904E-08                      1.13234181E-01                     -9.85737794E-01                     -7.85467630E-01                     -5.61009798E-02                      4.14753983E+02                     -2.61713535E+02                     -5.29095042E+03                      3.33863783E+03
    1.5500                     -2.09393722E+06                      8.65030703E-10                      8.89008255E+06                      4.38752553E-08                      4.22317198E+07                     -3.77406439E-08                      9.35229588E-02                     -9.86164617E-01                     -7.85807740E-01                     -4.63352062E-02                      3.93109484E+02                     -2.48055659E+02                     -5.33681815E+03                      3.36758078E+03
    1.5750                     -2.12690431E+06                      6.34854582E-10                      8.88820873E+06                      2.38634852E-08                      4.28398277E+07                     -4.00495609E-08                      7.38116425E-02                     -9.86591441E-01                     -7.86147851E-01                     -3.65693860E-02                      3.72044896E+02                     -2.34763712E+02                     -5.38268609E+03                      3.39652387E+03
    1.6000                     -2.15968522E+06                      8.09085871E-10                      8.88634214E+06                      2.92532711E-08                      4.34455060E+07                     -4.01172151E-08                      5.41004202E-02                     -9.87018264E-01                     -7.86487961E-01                     -2.68036123E-02                      3.51560418E+02                     -2.21837821E+02                     -5.42855381E+03                      3.42546682E+03
    1.6250                     -2.19228153E+06                      5.17218646E-10                      8.88448206E+06                      4.25473244E-08                      4.40487867E+07                     -3.82454485E-08                      3.43891978E-02                     -9.87445086E-01                     -7.86828071E-01                     -1.70378387E-02                      3.31655950E+02                     -2.09277920E+02                     -5.47442154E+03                      3.45440977E+03
    1.6500                     -2.22469454E+06                      7.72385628E-10                      8.88262762E+06                      4.41875055E-08                      4.46496899E+07                     -3.61793928E-08                      1.46779755E-02                     -9.87871909E-01                     -7.87168181E-01                     -7.27206506E-03                      3.12331492E+02                     -1.97084011E+02                     -5.52028926E+03                      3.48335272E+03
    1.6750                     -2.25692599E+06                      8.91214186E-10                      8.88077809E+06                      3.49839301E-08                      4.52482514E+07                     -4.00096622E-08                     -5.03324683E-03                     -9.88298731E-01                     -7.87508290E-01                      2.49370858E-03                      2.93587043E+02                     -1.85256094E+02                     -5.56615699E+03                      3.51229567E+03
    1.7000                     -2.28897749E+06                      6.51876556E-10                      8.87893241E+06                      3.61583379E-08                      4.58444929E+07                     -4.02421152E-08                     -2.47445631E-02                     -9.88725556E-01                     -7.87848402E-01                      1.22595288E-02                      2.75422518E+02                     -1.73794113E+02                     -5.61202493E+03                      3.54123876E+03
    1.7250                     -2.32085068E+06                      5.79072380E-10                      8.87708975E+06                      3.06228353E-08                      4.64384450E+07                     -3.96869495E-08                     -4.44557855E-02                     -9.89152378E-01                     -7.88188511E-01                      2.20253024E-02                      2.57838091E+02                     -1.62698180E+02                     -5.65789266E+03                      3.57018171E+03
    1.7500                     -2.35254754E+06                      9.02435678E-10                      8.87524906E+06                      3.40306995E-08                      4.70301383E+07                     -3.68402682E-08                     -6.41670153E-02                     -9.89579201E-01                     -7.88528621E-01                      3.17910798E-02                      2.40833666E+02                     -1.51968233E+02                     -5.70376040E+03                      3.59912467E+03
    1.7750                     -2.37868603E+06                      8.81022685E-10                      8.87347294E+06                      2.57300477E-08                      4.75113213E+07                     -3.79071774E-08                     -8.37202258E-02                     -9.87569352E-01                     -7.86927106E-01                      4.14785554E-02                      2.23265860E+02                     -1.40882788E+02                     -5.73558345E+03                      3.61920531E+03
    1.8000                     -2.40461411E+06                      7.08255069E-10                      8.87169550E+06                      3.03574226E-08                      4.79896728E+07                     -3.87970905E-08                     -1.03273436E-01                     -9.85559503E-01                     -7.85325590E-01                      5.11660309E-02                      2.06363295E+02                     -1.30217116E+02                     -5.76740650E+03                      3.63928594E+03
    1.8250                     -2.43033415E+06                      8.04965903E-10                      8.86991545E+06                      3.66076313E-08                      4.84652248E+07                     -3.73277798E-08                     -1.22826740E-01                     -9.83549645E-01                     -7.83724067E-01                      6.08535527E-02                      1.90125897E+02                     -1.19971170E+02                     -5.79922970E+03                      3.65936667E+03
    1.8500                     -2.45584863E+06                      8.78691651E-10                      8.86813173E+06                      3.71167726E-08                      4.89380186E+07                     -4.04155875E-08                     -1.42379951E-01                     -9.81539796E-01                     -7.82122551E-01                      7.05410282E-02                      1.74553819E+02                     -1.10145047E+02                     -5.83105275E+03                      3.67944731E+03
    1.8750                     -2.48116020E+06                      6.50467093E-10                      8.86634292E+06                      2.91621981E-08                      4.94080879E+07                     -3.77250314E-08                     -1.61933161E-01                     -9.79529947E-01                     -7.80521035E-01                      8.02285038E-02                      1.59646984E+02                     -1.00738698E+02                     -5.86287580E+03                      3.69952794E+03
    1.9000                     -2.50627201E+06                      9.30462304E-10                      8.86454781E+06                      2.98526180E-08                      4.98754824E+07                     -3.81015206E-08                     -1.81486372E-01                     -9.77520098E-01                     -7.78919520E-01                      8.99159794E-02                      1.45405390E+02                     -9.17521231E+01                     -5.89469885E+03                      3.71960857E+03
    1.9250                     -2.53118694E+06                      7.80733984E-10                      8.86274486E+06                      3.14303490E-08                      5.03402360E+07                     -3.84050430E-08                     -2.01039582E-01                     -9.75510249E-01                     -7.77318004E-01                      9.96034549E-02                      1.31829038E+02                     -8.31853217E+01                     -5.92652190E+03                      3.73968921E+03
    1.9500                     -2.55590868E+06                      6.23036778E-10                      8.86093278E+06                      2.59009180E-08                      5.08024064E+07                     -3.67206265E-08                     -2.20592886E-01                     -9.73500391E-01                     -7.75716481E-01                      1.09290977E-01                      1.18917868E+02                     -7.50382561E+01                     -5.95834510E+03                      3.75976994E+03
    1.9750                     -2.58044029E+06                      1.02543841E-09                      8.85911000E+06                      3.12039676E-08                      5.12620293E+07                     -3.81430998E-08                     -2.40146097E-01                     -9.71490542E-01                     -7.74114965E-01                      1.18978452E-01                      1.06672003E+02                     -6.73110041E+01                     -5.99016815E+03                      3.77985057E+03
    2.0000                     -2.60478584E+06                      9.50845305E-10                      8.85727512E+06                      3.46794861E-08                      5.17191641E+07                     -3.74682924E-08                     -2.59699315E-01                     -9.69480693E-01                     -7.72513449E-01                      1.28665924E-01                      9.50913764E+01                     -6.00035232E+01                     -6.02199118E+03                      3.79993119E+03
    2.0250                     -2.62276987E+06                      7.58724680E-10                      8.85552696E+06                      3.93788520E-08                      5.20510007E+07                     -3.85299431E-08                     -2.78613163E-01                     -9.65083654E-01                     -7.69009744E-01                      1.38036652E-01                      8.37359209E+01                     -5.28381275E+01                     -6.03898637E+03                      3.81065531E+03
    2.0500                     -2.64054379E+06                      7.64308321E-10                      8.85376205E+06                      3.44791256E-08                      5.23798812E+07                     -3.83946347E-08                     -2.97526830E-01                     -9.60686656E-01                     -7.65506072E-01                      1.47407290E-01                      7.31023581E+01                     -4.61282527E+01                     -6.05598139E+03                      3.82137932E+03
    2.0750                     -2.65811215E+06                      8.54676573E-10                      8.85197868E+06                      3.44999422E-08                      5.27058644E+07                     -3.81569776E-08                     -3.16440678E-01                     -9.56289617E-01                     -7.62002366E-01                      1.56778018E-01                      6.31904853E+01                     -3.98737708E+01                     -6.07297657E+03                      3.83210344E+03
    2.1000                     -2.67547937E+06                      8.69963823E-10                      8.85017539E+06                      2.89878584E-08                      5.30290094E+07                     -4.00738470E-08                     -3.35354345E-01                     -9.51892619E-01                     -7.58498694E-01                      1.66148657E-01                      5.40004915E+01                     -3.40748012E+01                     -6.08997160E+03                      3.84282745E+03
    2.1250                     -2.69265042E+06                      8.73866951E-10                      8.84835040E+06                      1.91242207E-08                      5.33493799E+07                     -3.94094479E-08                     -3.54268193E-01                     -9.47495580E-01                     -7.54994988E-01                      1.75519384E-01                      4.55322015E+01                     -2.87312332E+01                     -6.10696678E+03                      3.85355157E+03
    2.1500                     -2.70963031E+06                      8.94195742E-10                      8.84650228E+06                      3.80838809E-08                      5.36670454E+07                     -3.89809712E-08                     -3.73182041E-01                     -9.43098540E-01                     -7.51491283E-01                      1.84890112E-01                      3.77857063E+01                     -2.38431243E+01                     -6.12396197E+03                      3.86427569E+03
    2.1750                     -2.72642391E+06                      9.24065512E-10                      8.84462937E+06                      2.92810267E-08                      5.39820668E+07                     -3.69756309E-08                     -3.92095709E-01                     -9.38701543E-01                     -7.47987611E-01                      1.94260751E-01                      3.07610695E+01                     -1.94105145E+01                     -6.14095699E+03                      3.87499970E+03
    2.2000                     -2.74303709E+06                      9.33985961E-10                      8.84273018E+06                      2.94388865E-08                      5.42945270E+07                     -3.75879883E-08                     -4.11009556E-01                     -9.34304503E-01                     -7.44483905E-01                      2.03631479E-01                      2.44581570E+01                     -1.54333195E+01                     -6.15795217E+03                      3.88572382E+03
    2.2250                     -2.75947480E+06                      7.54225241E-10                      8.84080309E+06                      3.82911804E-08                      5.46044872E+07                     -3.82836124E-08                     -4.29923224E-01                     -9.29907506E-01                     -7.40980233E-01                      2.13002117E-01                      1.88770892E+01                     -1.19116149E+01                     -6.17494720E+03                      3.89644783E+03
    2.2500                     -2.77574324E+06                      8.30715705E-10                      8.83884678E+06                      3.14797887E-08                      5.49120383E+07                     -4.01415012E-08                     -4.48837072E-01                     -9.25510466E-01                     -7.37476528E-01                      2.22372845E-01                      1.40177596E+01                     -8.84533374E+00                     -6.19194238E+03                      3.90717195E+03
    2.2750                     -2.78510991E+06                      8.59284432E-10                      8.83699884E+06                      3.24781220E-08                      5.50839471E+07                     -3.85681070E-08                     -4.66645741E-01                     -9.18834488E-01                     -7.32156906E-01                      2.31196001E-01                      9.82234964E+00                     -6.19799194E+00                     -6.19369085E+03                      3.90827525E+03
    2.3000                     -2.79429429E+06                      8.33534630E-10                      8.83511789E+06                      1.80929276E-08                      5.52531293E+07                     -3.75689063E-08                     -4.84454240E-01                     -9.12158573E-01                     -7.26837335E-01                      2.40019072E-01                      6.37108870E+00                     -4.02021490E+00                     -6.19543930E+03                      3.90937853E+03
    2.3250                     -2.80330219E+06                      7.77535588E-10                      8.83320244E+06                      2.08745567E-08                      5.54196639E+07                     -3.89861754E-08                     -5.02262909E-01                     -9.05482595E-01                     -7.21517714E-01                      2.48842228E-01                      3.66391092E+00                     -2.31196110E+00                     -6.19718776E+03                      3.91048183E+03
    2.3500                     -2.81213975E+06                      6.37565088E-10                      8.83125153E+06                      3.55841444E-08                      5.55836440E+07                     -4.00755817E-08                     -5.20071409E-01                     -8.98806681E-01                     -7.16198143E-01                      2.57665299E-01                      1.70086792E+00                     -1.07326312E+00                     -6.19893621E+03                      3.91158512E+03
    2.3750                     -2.82081292E+06                      9.33606491E-10                      8.82926383E+06                      2.89722459E-08                      5.57451545E+07                     -3.97841482E-08                     -5.37880078E-01                     -8.92130703E-01                     -7.10878521E-01                      2.66488455E-01                      4.81922271E-01                     -3.04097335E-01                     -6.20068468E+03                      3.91268842E+03
    2.4000                     -2.82932793E+06                      8.64705443E-10                      8.82723844E+06                      2.74795163E-08                      5.59042912E+07                     -3.68646086E-08                     -5.55688747E-01                     -8.85454725E-01                     -7.05558900E-01                      2.75311611E-01                      7.09623642E-03                     -4.47778971E-03                     -6.20243315E+03                      3.91379171E+03
    2.4250                     -2.83769064E+06                      7.05652984E-10                      8.82517431E+06                      1.87451836E-08                      5.60611410E+07                     -3.64448055E-08                     -5.73497247E-01                     -8.78778810E-01                     -7.00239329E-01                      2.84134683E-01                     -2.76383701E-01                      1.74400628E-01                     -6.20418160E+03                      3.91489500E+03
    2.4500                     -2.84590740E+06                      1.01990898E-09                      8.82307063E+06                      3.18701014E-08                      5.62158063E+07                     -3.82931534E-08                     -5.91305916E-01                     -8.72102832E-01                     -6.94919707E-01                      2.92957838E-01                     -1.28978980E+00                      8.13869092E-01                     -6.20593006E+03                      3.91599830E+03
    2.4750                     -2.85398419E+06                      6.96816736E-10                      8.82092671E+06                      3.86268494E-08                      5.63683823E+07                     -4.00512956E-08                     -6.09114415E-01                     -8.65426918E-01                     -6.89600136E-01                      3.01780910E-01                     -3.04729520E+00                      1.92287098E+00                     -6.20767851E+03                      3.91710159E+03
    2.5000                     -2.86192701E+06                      9.21951317E-10                      8.81874171E+06                      3.12109065E-08                      5.65189653E+07                     -3.81725901E-08                     -6.26923084E-01                     -8.58750939E-01                     -6.84280515E-01                      3.10604066E-01                     -5.54893344E+00                      3.50142746E+00                     -6.20942698E+03                      3.91820489E+03
    2.5250                     -2.86280380E+06                      7.85721314E-10                      8.81670197E+06                      3.39413613E-08                      5.65294595E+07                     -3.98058322E-08                     -6.43188056E-01                     -8.49960431E-01                     -6.77275953E-01                      3.18662415E-01                     -8.76032156E+00                      5.52784256E+00                     -6.19588569E+03                      3.90966021E+03
    2.5500                     -2.86376478E+06                      6.87384177E-10                      8.81462034E+06                      2.25095336E-08                      5.65400204E+07                     -3.75212014E-08                     -6.59452872E-01                     -8.41170006E-01                     -6.70271458E-01                      3.26720687E-01                     -1.27017032E+01                      8.01489023E+00                     -6.18234453E+03                      3.90111561E+03
    2.5750                     -2.86481612E+06                      7.39588512E-10                      8.81249653E+06                      3.90674691E-08                      5.65507561E+07                     -3.95308786E-08                     -6.75717844E-01                     -8.32379497E-01                     -6.63266896E-01                      3.34779037E-01                     -1.73731536E+01                      1.09626179E+01                     -6.16880324E+03                      3.89257094E+03
    2.6000                     -2.86596354E+06                      1.01443376E-09                      8.81033019E+06                      2.03220473E-08                      5.65617667E+07                     -3.98439962E-08                     -6.91982660E-01                     -8.23589072E-01                     -6.56262401E-01                      3.42837309E-01                     -2.27745836E+01                      1.43709693E+01                     -6.15526207E+03                      3.88402634E+03
    2.6250                     -2.86721291E+06                      8.30119393E-10                      8.80812110E+06                      2.92515364E-08                      5.65731589E+07                     -3.82098866E-08                     -7.08247632E-01                     -8.14798564E-01                     -6.49257839E-01                      3.50895658E-01                     -2.89060962E+01                      1.82400095E+01                     -6.14172078E+03                      3.87548166E+03
    2.6500                     -2.86857021E+06                      9.31058616E-10                      8.80586935E+06                      3.06488561E-08                      5.65850437E+07                     -3.84761667E-08                     -7.24512603E-01                     -8.06008055E-01                     -6.42253277E-01                      3.58954007E-01                     -3.57676434E+01                      2.25697082E+01                     -6.12817949E+03                      3.86693699E+03
    2.6750                     -2.87004086E+06                      7.62953069E-10                      8.80357473E+06                      3.38242674E-08                      5.65975213E+07                     -3.82826366E-08                     -7.40777420E-01                     -7.97217630E-01                     -6.35248782E-01                      3.67012280E-01                     -4.33591494E+01                      2.73600175E+01                     -6.11463833E+03                      3.85839239E+03
    2.7000                     -2.87163084E+06                      9.02164628E-10                      8.80123746E+06                      4.17675662E-08                      5.66107049E+07                     -4.00200706E-08                     -7.57042391E-01                     -7.88427122E-01                     -6.28244220E-01                      3.75070629E-01                     -5.16807588E+01                      3.26110288E+01                     -6.10109704E+03                      3.84984771E+03
    2.7250                     -2.87334564E+06                      5.44269491E-10                      8.79885774E+06                      3.41347829E-08                      5.66247021E+07                     -4.03132389E-08                     -7.73307208E-01                     -7.79636697E-01                     -6.21239725E-01                      3.83128901E-01                     -6.07323131E+01                      3.83226418E+01                     -6.08755588E+03                      3.84130312E+03
    2.7500                     -2.87519075E+06                      5.67254577E-10                      8.79643575E+06                      3.47462730E-08                      5.66396194E+07                     -3.67596578E-08                     -7.89572179E-01                     -7.70846188E-01                     -6.14235163E-01                      3.91187251E-01                     -7.05139848E+01                      4.44949656E+01                     -6.07401459E+03                      3.83275844E+03
    2.7750                     -2.86998917E+06                      1.10518148E-09                      8.79421897E+06                      3.99790663E-08                      5.65140736E+07                     -3.74006381E-08                     -8.03892935E-01                     -7.60157604E-01                     -6.05718145E-01                      3.98282358E-01                     -8.06538620E+01                      5.08933203E+01                     -6.04551699E+03                      3.81477619E+03
    2.8000                     -2.86490685E+06                      4.88893865E-10                      8.79196240E+06                      2.30316853E-08                      5.63892825E+07                     -4.00105296E-08                     -8.18213555E-01                     -7.49469122E-01                     -5.97201209E-01                      4.05377398E-01                     -9.14745515E+01                      5.77212738E+01                     -6.01701966E+03                      3.79679412E+03
    2.8250                     -2.85994931E+06                      6.48325794E-10                      8.78966666E+06                      2.85663206E-08                      5.62653571E+07                     -3.79314635E-08                     -8.32534311E-01                     -7.38780538E-01                     -5.88684191E-01                      4.12472506E-01                     -1.02976260E+02                      6.49789562E+01                     -5.98852205E+03                      3.77881187E+03
    2.8500                     -2.85512216E+06                      7.87103672E-10                      8.78733250E+06                      3.73240721E-08                      5.61424102E+07                     -4.04823744E-08                     -8.46854930E-01                     -7.28092056E-01                     -5.80167255E-01                      4.19567546E-01                     -1.15158767E+02                      7.26662292E+01                     -5.96002472E+03                      3.76082980E+03
    2.8750                     -2.85043039E+06                      9.09428782E-10                      8.78496038E+06                      3.07754909E-08                      5.60205441E+07                     -4.03045652E-08                     -8.61175686E-01                     -7.17403471E-01                     -5.71650237E-01                      4.26662654E-01                     -1.28022306E+02                      8.07832394E+01                     -5.93152712E+03                      3.74284755E+03
    2.9000                     -2.84587973E+06                      8.54568152E-10                      8.78255138E+06                      3.24616422E-08                      5.58998757E+07                     -3.89905122E-08                     -8.75496442E-01                     -7.06714887E-01                     -5.63133219E-01                      4.33757761E-01                     -1.41566764E+02                      8.93299155E+01                     -5.90302952E+03                      3.72486530E+03
    2.9250                     -2.84147540E+06                      8.40202474E-10                      8.78010632E+06                      3.58478224E-08                      5.57805124E+07                     -3.96817995E-08                     -8.89817062E-01                     -6.96026405E-01                     -5.54616283E-01                      4.40852801E-01                     -1.55792002E+02                      9.83061699E+01                     -5.87453218E+03                      3.70688323E+03
    2.9500                     -2.83722270E+06                      7.33381455E-10                      8.77762613E+06                      2.26673934E-08                      5.56625611E+07                     -3.81882026E-08                     -9.04137818E-01                     -6.85337821E-01                     -5.46099265E-01                      4.47947909E-01                     -1.70698291E+02                      1.07712174E+02                     -5.84603458E+03                      3.68890098E+03
    2.9750                     -2.83312712E+06                      9.52823974E-10                      8.77511201E+06                      1.86593148E-08                      5.55461338E+07                     -3.77527870E-08                     -9.18458437E-01                     -6.74649339E-01                     -5.37582329E-01                      4.55042949E-01                     -1.86285347E+02                      1.17547748E+02                     -5.81753725E+03                      3.67091890E+03
    3.0000                     -2.82919398E+06                      8.73623006E-10                      8.77256516E+06                      2.79921271E-08                      5.54313373E+07                     -3.84787688E-08                     -9.32779193E-01                     -6.63960755E-01                     -5.29065311E-01                      4.62138057E-01                     -2.02553467E+02                      1.27813079E+02                     -5.78903965E+03                      3.65293666E+03
    3.0250                     -2.81823276E+06                      1.02820313E-09                      8.77030444E+06                      3.06844180E-08                      5.51777508E+07                     -3.87146912E-08                     -9.44803165E-01                     -6.51637257E-01                     -5.19245563E-01                      4.68095230E-01                     -2.18465364E+02                      1.37853631E+02                     -5.74628755E+03                      3.62595969E+03
    3.0500                     -2.80741767E+06                      5.49229716E-10                      8.76801647E+06                      2.72062974E-08                      5.49255963E+07                     -3.82178013E-08                     -9.56827022E-01                     -6.39313876E-01                     -5.09425909E-01                      4.74052346E-01                     -2.34978687E+02                      1.48273688E+02                     -5.70353586E+03                      3.59898299E+03
    3.0750                     -2.79675676E+06                      1.03939752E-09                      8.76570392E+06                      3.70673330E-08                      5.46749819E+07                     -3.88621427E-08                     -9.68850993E-01                     -6.26990378E-01                     -4.99606161E-01                      4.80009519E-01                     -2.52093750E+02                      1.59073449E+02                     -5.66078376E+03                      3.57200603E+03
    3.1000                     -2.78625995E+06                      7.63955956E-10                      8.76337025E+06                      1.79897116E-08                      5.44260248E+07                     -3.75532938E-08                     -9.80874850E-01                     -6.14666998E-01                     -4.89786507E-01                      4.85966636E-01                     -2.69810227E+02                      1.70252707E+02                     -5.61803207E+03                      3.54502932E+03
    3.1250                     -2.77593208E+06                      1.06663810E-09                      8.76101681E+06                      3.87942502E-08                      5.41788230E+07                     -3.88833930E-08                     -9.92898822E-01                     -6.02343500E-01                     -4.79966760E-01                      4.91923809E-01                     -2.88128456E+02                      1.81811676E+02                     -5.57527997E+03                      3.51805236E+03
    3.1500                     -2.76577881E+06                      9.74101442E-10                      8.75864540E+06                      2.29293367E-08                      5.39334830E+07                     -3.59651545E-08                     -1.00492279E+00                     -5.90020002E-01                     -4.70147012E-01                      4.97880982E-01                     -3.07048271E+02                      1.93750251E+02                     -5.53252788E+03                      3.49107540E+03
    3.1750                     -2.75580617E+06                      7.55146813E-10                      8.75625799E+06                      2.94501622E-08                      5.36901098E+07                     -3.86422665E-08                     -1.01694665E+00                     -5.77696621E-01                     -4.60327358E-01                      5.03838099E-01                     -3.26569483E+02                      2.06068313E+02                     -5.48977619E+03                      3.46409869E+03
    3.2000                     -2.74602034E+06                      6.17697083E-10                      8.75385674E+06                      3.11666711E-08                      5.34488014E+07                     -4.14134872E-08                     -1.02897062E+00                     -5.65373123E-01                     -4.50507610E-01                      5.09795272E-01                     -3.46692464E+02                      2.18766097E+02                     -5.44702409E+03                      3.43712173E+03
    3.2250                     -2.73642750E+06                      7.52192362E-10                      8.75144369E+06                      2.12197667E-08                      5.32096656E+07                     -3.83803232E-08                     -1.04099448E+00                     -5.53049743E-01                     -4.40687956E-01                      5.15752388E-01                     -3.67416830E+02                      2.31843361E+02                     -5.40427240E+03                      3.41014503E+03
    3.2500                     -2.72703366E+06                      7.97837274E-10                      8.74902091E+06                      2.41800723E-08                      5.29728047E+07                     -3.92997267E-08                     -1.05301845E+00                     -5.40726244E-01                     -4.30868208E-01                      5.21709561E-01                     -3.88742976E+02                      2.45300353E+02                     -5.36152030E+03                      3.38316806E+03
    3.2750                     -2.71074630E+06                      8.30417549E-10                      8.74698063E+06                      2.56606588E-08                      5.26016539E+07                     -3.78872281E-08                     -1.06244950E+00                     -5.27071299E-01                     -4.19987494E-01                      5.26382095E-01                     -4.08705342E+02                      2.57896787E+02                     -5.30556610E+03                      3.34786045E+03
    3.3000                     -2.69463696E+06                      1.14033674E-09                      8.74493687E+06                      2.22935605E-08                      5.22325549E+07                     -4.09316678E-08                     -1.07188047E+00                     -5.13416483E-01                     -4.09106883E-01                      5.31054583E-01                     -4.29167302E+02                      2.70808470E+02                     -5.24961243E+03                      3.31255318E+03
    3.3250                     -2.67870964E+06                      9.32034398E-10                      8.74289022E+06                      3.52831699E-08                      5.18656268E+07                     -4.13913695E-08                     -1.08131152E+00                     -4.99761537E-01                     -3.98226169E-01                      5.35727116E-01                     -4.50129247E+02                      2.84035648E+02                     -5.19365823E+03                      3.27724557E+03
    3.3500                     -2.66297427E+06                      6.79998050E-10                      8.74084091E+06                      1.83635445E-08                      5.15012495E+07                     -3.85889237E-08                     -1.09074248E+00                     -4.86106722E-01                     -3.87345558E-01                      5.40399605E-01                     -4.71590778E+02                      2.97578069E+02                     -5.13770455E+03                      3.24193829E+03
    3.3750                     -2.64744931E+06                      1.11248630E-09                      8.73878962E+06                      3.03071156E-08                      5.11401484E+07                     -3.75632685E-08                     -1.10017353E+00                     -4.72451776E-01                     -3.76464844E-01                      5.45072138E-01                     -4.93552303E+02                      3.11435991E+02                     -5.08175035E+03                      3.20663068E+03
    3.4000                     -2.63213862E+06                      9.38566716E-10                      8.73673736E+06                      2.85220851E-08                      5.07824601E+07                     -3.76239838E-08                     -1.10960459E+00                     -4.58796831E-01                     -3.65584129E-01                      5.49744672E-01                     -5.16013620E+02                      3.25609286E+02                     -5.02579615E+03                      3.17132307E+03
    3.4250                     -2.61704474E+06                      8.96553881E-10                      8.73468521E+06                      1.11488295E-08                      5.04282664E+07                     -3.95837876E-08                     -1.11903555E+00                     -4.45142015E-01                     -3.54703519E-01                      5.54417160E-01                     -5.38974508E+02                      3.40097816E+02                     -4.96984248E+03                      3.13601579E+03
    3.4500                     -2.60216923E+06                      9.47253886E-10                      8.73263412E+06                      2.20984041E-08                      5.00776154E+07                     -4.03295019E-08                     -1.12846660E+00                     -4.31487069E-01                     -3.43822804E-01                      5.59089693E-01                     -5.62435405E+02                      3.54901855E+02                     -4.91388827E+03                      3.10070818E+03
    3.4750                     -2.58751379E+06                      8.61893293E-10                      8.73058513E+06                      3.71722838E-08                      4.97305531E+07                     -4.11042728E-08                     -1.13789756E+00                     -4.17832254E-01                     -3.32942194E-01                      5.63762182E-01                     -5.86395863E+02                      3.70021122E+02                     -4.85793460E+03                      3.06540091E+03
    3.5000                     -2.57307923E+06                      7.73368186E-10                      8.72853907E+06                      2.68827715E-08                      4.93871007E+07                     -3.97353591E-08                     -1.14732862E+00                     -4.04177308E-01                     -3.22061479E-01                      5.68434715E-01                     -6.10856340E+02                      3.85455905E+02                     -4.80198040E+03                      3.03009330E+03
    3.5250                     -2.55196332E+06                      8.92291612E-10                      8.72694889E+06                      2.76443151E-08                      4.89169239E+07                     -3.74679671E-08                     -1.15393456E+00                     -3.89527137E-01                     -3.10387756E-01                      5.71707583E-01                     -6.32751211E+02                      3.99271768E+02                     -4.73420226E+03                      2.98732468E+03
    3.5500                     -2.53103156E+06                      8.55875971E-10                      8.72536490E+06                      2.36665941E-08                      4.84498654E+07                     -3.90497096E-08                     -1.16054045E+00                     -3.74877105E-01                     -2.98714144E-01                      5.74980420E-01                     -6.55031377E+02                      4.13330755E+02                     -4.66642477E+03                      2.94455646E+03
    3.5750                     -2.51028414E+06                      8.52508168E-10                      8.72378770E+06                      3.05924776E-08                      4.79859298E+07                     -3.75323687E-08                     -1.16714640E+00                     -3.60226934E-01                     -2.87040421E-01                      5.78253287E-01                     -6.77697264E+02                      4.27633136E+02                     -4.59864664E+03                      2.90178785E+03
    3.6000                     -2.48972197E+06                      8.02914389E-10                      8.72221775E+06                      2.90581147E-08                      4.75251349E+07                     -3.66447324E-08                     -1.17375228E+00                     -3.45576902E-01                     -2.75366810E-01                      5.81526124E-01                     -7.00748438E+02                      4.42178636E+02                     -4.53086915E+03                      2.85901963E+03
    3.6250                     -2.46934506E+06                      6.46515685E-10                      8.72065544E+06                      2.47880929E-08                      4.70674795E+07                     -3.82738546E-08                     -1.18035823E+00                     -3.30926731E-01                     -2.63693087E-01                      5.84798992E-01                     -7.24185340E+02                      4.56967534E+02                     -4.46309102E+03                      2.81625101E+03
    3.6500                     -2.44915406E+06                      7.97108296E-10                      8.71910127E+06                      3.90770101E-08                      4.66129766E+07                     -3.95919192E-08                     -1.18696418E+00                     -3.16276560E-01                     -2.52019364E-01                      5.88071859E-01                     -7.48007751E+02                      4.71999693E+02                     -4.39531288E+03                      2.77348240E+03
    3.6750                     -2.42914946E+06                      6.00593793E-10                      8.71755559E+06                      3.33498206E-08                      4.61616356E+07                     -3.91685382E-08                     -1.19357006E+00                     -3.01626528E-01                     -2.40345752E-01                      5.91344696E-01                     -7.72215439E+02                      4.87274964E+02                     -4.32753539E+03                      2.73071418E+03
    3.7000                     -2.40933122E+06                      1.04740028E-09                      8.71601867E+06                      3.20054099E-08                      4.57134528E+07                     -4.00170348E-08                     -1.20017601E+00                     -2.86976357E-01                     -2.28672029E-01                      5.94617564E-01                     -7.96808866E+02                      5.02793640E+02                     -4.25975726E+03                      2.68794556E+03
    3.7250                     -2.38970001E+06                      7.88198039E-10                      8.71449097E+06                      3.28658327E-08                      4.52684429E+07                     -3.89715387E-08                     -1.20678190E+00                     -2.72326326E-01                     -2.16998418E-01                      5.97890400E-01                     -8.21787562E+02                      5.18555424E+02                     -4.19197977E+03                      2.64517735E+03
    3.7500                     -2.37025573E+06                      9.38227902E-10                      8.71297273E+06                      2.89592355E-08                      4.48266013E+07                     -3.90052574E-08                     -1.21338785E+00                     -2.57676154E-01                     -2.05324695E-01                      6.01163268E-01                     -8.47152004E+02                      5.34560617E+02                     -4.12420164E+03                      2.60240873E+03
    3.7750                     -2.34439097E+06                      7.48844888E-10                      8.71196020E+06                      2.85446365E-08                      4.42659246E+07                     -3.81041769E-08                     -1.21700599E+00                     -2.42391513E-01                     -1.93145398E-01                      6.02955861E-01                     -8.68672146E+02                      5.48140023E+02                     -4.04626832E+03                      2.55323210E+03
    3.8000                     -2.31867263E+06                      8.30071960E-10                      8.71095825E+06                      2.51142209E-08                      4.37078409E+07                     -3.82549895E-08                     -1.22062411E+00                     -2.27107018E-01                     -1.80966217E-01                      6.04748436E-01                     -8.90461998E+02                      5.61889618E+02                     -3.96833575E+03                      2.50405594E+03
[...]
   11.5500                     -2.09393743E+06                      7.95641764E-10                      8.89008252E+06                      3.14294817E-08                      4.22317236E+07                     -3.76920717E-08                      9.35228721E-02                     -9.86164621E-01                     -7.85807743E-01                     -4.63351488E-02                      3.93109392E+02                     -2.48055601E+02                     -5.33681842E+03                      3.36758095E+03
   11.5750                     -2.12690389E+06                      1.06690915E-09                      8.88820874E+06                      4.50808881E-08                      4.28398200E+07                     -3.78638093E-08                      7.38119303E-02                     -9.86591437E-01                     -7.86147848E-01                     -3.65695141E-02                      3.72045200E+02                     -2.34763905E+02                     -5.38268550E+03                      3.39652349E+03
   11.6000                     -2.15968558E+06                      8.86172646E-10                      8.88634211E+06                      3.15899436E-08                      4.34455127E+07                     -4.10383533E-08                      5.41002365E-02                     -9.87018270E-01                     -7.86487966E-01                     -2.68035069E-02                      3.51560232E+02                     -2.21837703E+02                     -5.42855432E+03                      3.42546714E+03
   11.6250                     -2.19228143E+06                      1.11195775E-09                      8.88448205E+06                      3.90405809E-08                      4.40487849E+07                     -4.03340555E-08                      3.43892947E-02                     -9.87445086E-01                     -7.86828071E-01                     -1.70378722E-02                      3.31656048E+02                     -2.09277982E+02                     -5.47442139E+03                      3.45440968E+03
   11.6500                     -2.22469398E+06                      6.84836302E-10                      8.88262764E+06                      2.71447147E-08                      4.46496796E+07                     -3.97755288E-08                      1.46783528E-02                     -9.87871903E-01                     -7.87168176E-01                     -7.27223754E-03                      3.12331858E+02                     -1.97084242E+02                     -5.52028846E+03                      3.48335221E+03
   11.6750                     -2.25692620E+06                      7.83119229E-10                      8.88077807E+06                      3.47853042E-08                      4.52482554E+07                     -3.87086196E-08                     -5.03334093E-03                     -9.88298735E-01                     -7.87508294E-01                      2.49376968E-03                      2.93586956E+02                     -1.85256039E+02                     -5.56615728E+03                      3.51229586E+03
   11.7000                     -2.28897709E+06                      1.07346857E-09                      8.87893243E+06                      1.27092133E-08                      4.58444855E+07                     -3.68090974E-08                     -2.47442828E-02                     -9.88725552E-01                     -7.87848398E-01                      1.22594044E-02                      2.75422774E+02                     -1.73794275E+02                     -5.61202435E+03                      3.54123840E+03
   11.7250                     -2.32085105E+06                      7.87618668E-10                      8.87708973E+06                      2.65436330E-08                      4.64384519E+07                     -3.86565779E-08                     -4.44559766E-02                     -9.89152384E-01                     -7.88188516E-01                      2.20254116E-02                      2.57837924E+02                     -1.62698075E+02                     -5.65789318E+03                      3.57018204E+03
   11.7500                     -2.35254745E+06                      7.55363654E-10                      8.87524906E+06                      2.93694976E-08                      4.70301367E+07                     -3.84570305E-08                     -6.41669184E-02                     -9.89579201E-01                     -7.88528621E-01                      3.17910463E-02                      2.40833750E+02                     -1.51968286E+02                     -5.70376025E+03                      3.59912458E+03
   11.7750                     -2.37868559E+06                      7.46852667E-10                      8.87347298E+06                      2.27758136E-08                      4.75113133E+07                     -3.81032011E-08                     -8.37198716E-02                     -9.87569381E-01                     -7.86927134E-01                      4.14783952E-02                      2.23266168E+02                     -1.40882982E+02                     -5.73558294E+03                      3.61920499E+03
   11.8000                     -2.40461432E+06                      8.93978901E-10                      8.87169549E+06                      4.34086146E-08                      4.79896767E+07                     -3.83547361E-08                     -1.03273571E-01                     -9.85559484E-01                     -7.85325586E-01                      5.11661136E-02                      2.06363179E+02                     -1.30217042E+02                     -5.76740684E+03                      3.63928616E+03
   11.8250                     -2.43033389E+06                      8.54297102E-10                      8.86991547E+06                      3.77768349E-08                      4.84652202E+07                     -3.81777943E-08                     -1.22826524E-01                     -9.83549664E-01                     -7.83724100E-01                      6.08534625E-02                      1.90126071E+02                     -1.19971280E+02                     -5.79922953E+03                      3.65936657E+03
   11.8500                     -2.45584900E+06                      8.22692608E-10                      8.86813170E+06                      4.31761617E-08                      4.89380257E+07                     -3.80008525E-08                     -1.42380223E-01                     -9.81539767E-01                     -7.82122552E-01                      7.05411810E-02                      1.74553607E+02                     -1.10144913E+02                     -5.83105343E+03                      3.67944774E+03
   11.8750                     -2.48116023E+06                      7.40401664E-10                      8.86634292E+06                      4.48345573E-08                      4.94080888E+07                     -3.88456628E-08                     -1.61933176E-01                     -9.79529947E-01                     -7.80521065E-01                      8.02285299E-02                      1.59646973E+02                     -1.00738692E+02                     -5.86287612E+03                      3.69952815E+03
   11.9000                     -2.50627171E+06                      7.29342801E-10                      8.86454784E+06                      2.51402417E-08                      4.98754770E+07                     -4.07451308E-08                     -1.81486129E-01                     -9.77520127E-01                     -7.78919578E-01                      8.99158788E-02                      1.45405564E+02                     -9.17522330E+01                     -5.89469881E+03                      3.71960855E+03
   11.9250                     -2.53118726E+06                      9.37834879E-10                      8.86274484E+06                      3.34339547E-08                      5.03402422E+07                     -3.81604470E-08                     -2.01039829E-01                     -9.75510230E-01                     -7.77318030E-01                      9.96035972E-02                      1.31828874E+02                     -8.31852181E+01                     -5.92652272E+03                      3.73968972E+03
   11.9500                     -2.55590855E+06                      8.00845935E-10                      8.86093280E+06                      3.02394614E-08                      5.08024042E+07                     -3.81934068E-08                     -2.20592782E-01                     -9.73500410E-01                     -7.75716543E-01                      1.09290946E-01                      1.18917939E+02                     -7.50383006E+01                     -5.95834541E+03                      3.75977013E+03
   11.9750                     -2.58044077E+06                      1.02332422E-09                      8.85910998E+06                      3.75599944E-08                      5.12620385E+07                     -3.85906584E-08                     -2.40146481E-01                     -9.71490513E-01                     -7.74114996E-01                      1.18978665E-01                      1.06671773E+02                     -6.73108589E+01                     -5.99016931E+03                      3.77985130E+03
   12.0000                     -2.60478598E+06                      6.99201981E-10                      8.85727512E+06                      2.09664970E-08                      5.17191673E+07                     -3.98309857E-08                     -2.59699434E-01                     -9.69480693E-01                     -7.72513509E-01                      1.28666013E-01                      9.50913120E+01                     -6.00034826E+01                     -6.02199200E+03                      3.79993171E+03
   12.0250                     -2.62276967E+06                      8.31908327E-10                      8.85552699E+06                      4.04058083E-08                      5.20509976E+07                     -3.82870818E-08                     -2.78612927E-01                     -9.65083738E-01                     -7.69009876E-01                      1.38036554E-01                      8.37360671E+01                     -5.28382198E+01                     -6.03898686E+03                      3.81065562E+03
   12.0500                     -2.64054410E+06                      1.16183105E-09                      8.85376202E+06                      2.27159657E-08                      5.23798875E+07                     -3.69704267E-08                     -2.97527142E-01                     -9.60686614E-01                     -7.65506110E-01                      1.47407451E-01                      7.31021980E+01                     -4.61281517E+01                     -6.05598237E+03                      3.82137995E+03
   12.0750                     -2.65811213E+06                      9.74264072E-10                      8.85197869E+06                      3.07217145E-08                      5.27058644E+07                     -3.80563636E-08                     -3.16440635E-01                     -9.56289659E-01                     -7.62002477E-01                      1.56777991E-01                      6.31905160E+01                     -3.98737902E+01                     -6.07297724E+03                      3.83210386E+03
   12.1000                     -2.67547984E+06                      8.95550994E-10                      8.85017534E+06                      2.62886287E-08                      5.30290187E+07                     -3.88855614E-08                     -3.35354849E-01                     -9.51892535E-01                     -7.58498711E-01                      1.66148889E-01                      5.40002649E+01                     -3.40746582E+01                     -6.08997275E+03                      3.84282818E+03
   12.1250                     -2.69265056E+06                      8.84654763E-10                      8.84835039E+06                      3.06549277E-08                      5.33493830E+07                     -3.86392307E-08                     -3.54268342E-01                     -9.47495580E-01                     -7.54995078E-01                      1.75519429E-01                      4.55321458E+01                     -2.87311980E+01                     -6.10696761E+03                      3.85355209E+03
   12.1500                     -2.70963013E+06                      9.58055250E-10                      8.84650230E+06                      3.77109154E-08                      5.36670424E+07                     -3.85195348E-08                     -3.73181835E-01                     -9.43098624E-01                     -7.51491445E-01                      1.84889969E-01                      3.77857944E+01                     -2.38431798E+01                     -6.12396247E+03                      3.86427601E+03
   12.1750                     -2.72642421E+06                      7.41106395E-10                      8.84462933E+06                      3.63474227E-08                      5.39820728E+07                     -3.86982113E-08                     -3.92096050E-01                     -9.38701501E-01                     -7.47987679E-01                      1.94260867E-01                      3.07609565E+01                     -1.94104432E+01                     -6.14095799E+03                      3.87500033E+03
   12.2000                     -2.74303707E+06                      7.79487152E-10                      8.84273018E+06                      2.60657167E-08                      5.42945270E+07                     -3.95673078E-08                     -4.11009543E-01                     -9.34304545E-01                     -7.44484046E-01                      2.03631407E-01                      2.44581680E+01                     -1.54333264E+01                     -6.15795285E+03                      3.88572424E+03
   12.2250                     -2.75947525E+06                      8.73162220E-10                      8.84080303E+06                      4.84514558E-08                      5.46044961E+07                     -3.84588195E-08                     -4.29923757E-01                     -9.29907422E-01                     -7.40980280E-01                      2.13002305E-01                      1.88769480E+01                     -1.19115259E+01                     -6.17494836E+03                      3.89644856E+03
   12.2500                     -2.77574337E+06                      6.85541034E-10                      8.83884675E+06                      3.66822244E-08                      5.49120412E+07                     -3.72566561E-08                     -4.48837250E-01                     -9.25510466E-01                     -7.37476647E-01                      2.22372845E-01                      1.40177225E+01                     -8.84531034E+00                     -6.19194322E+03                      3.90717248E+03
   12.2750                     -2.78510987E+06                      1.06674652E-09                      8.83699885E+06                      3.66353868E-08                      5.50839466E+07                     -3.80268733E-08                     -4.66645568E-01                     -9.18834615E-01                     -7.32157115E-01                      2.31195838E-01                      9.82239358E+00                     -6.19801967E+00                     -6.19369160E+03                      3.90827572E+03
   12.3000                     -2.79429451E+06                      6.66784336E-10                      8.83511785E+06                      2.62079640E-08                      5.52531336E+07                     -3.74353326E-08                     -4.84454565E-01                     -9.12158510E-01                     -7.26837380E-01                      2.40019168E-01                      6.37103766E+00                     -4.02018270E+00                     -6.19544004E+03                      3.90937900E+03
   12.3250                     -2.80330224E+06                      6.42498207E-10                      8.83320244E+06                      4.11439331E-08                      5.54196649E+07                     -3.92862826E-08                     -5.02262883E-01                     -9.05482659E-01                     -7.21517848E-01                      2.48842162E-01                      3.66391802E+00                     -2.31196558E+00                     -6.19718842E+03                      3.91048224E+03
   12.3500                     -2.81214005E+06                      6.63206469E-10                      8.83125147E+06                      2.61515855E-08                      5.55836496E+07                     -3.72531866E-08                     -5.20071880E-01                     -8.98806554E-01                     -7.16198113E-01                      2.57665492E-01                      1.70082810E+00                     -1.07323800E+00                     -6.19893686E+03                      3.91158552E+03
   12.3750                     -2.82081305E+06                      6.60333333E-10                      8.82926381E+06                      3.91273171E-08                      5.57451568E+07                     -3.96106759E-08                     -5.37880197E-01                     -8.92130703E-01                     -7.10878581E-01                      2.66488485E-01                      4.81917687E-01                     -3.04094442E-01                     -6.20068523E+03                      3.91268877E+03
   12.4000                     -2.82932790E+06                      9.07097748E-10                      8.82723847E+06                      3.38606966E-08                      5.59042904E+07                     -3.81101400E-08                     -5.55688515E-01                     -8.85454852E-01                     -7.05559049E-01                      2.75311478E-01                      7.09769591E-03                     -4.47871066E-03                     -6.20243361E+03                      3.91379201E+03
   12.4250                     -2.83769084E+06                      1.01654796E-09                      8.82517428E+06                      3.18648973E-08                      5.60611446E+07                     -4.03965056E-08                     -5.73497512E-01                     -8.78778746E-01                     -7.00239314E-01                      2.84134808E-01                     -2.76392594E-01                      1.74406240E-01                     -6.20418205E+03                      3.91489529E+03
   12.4500                     -2.84590745E+06                      9.55832635E-10                      8.82307064E+06                      3.70942212E-08                      5.62158068E+07                     -3.98292510E-08                     -5.91305829E-01                     -8.72102896E-01                     -6.94919782E-01                      2.92957802E-01                     -1.28978184E+00                      8.13864067E-01                     -6.20593043E+03                      3.91599853E+03
   12.4750                     -2.85398447E+06                      9.40220124E-10                      8.82092666E+06                      2.90104098E-08                      5.63683870E+07                     -3.82784082E-08                     -6.09114826E-01                     -8.65426790E-01                     -6.89600047E-01                      3.01781132E-01                     -3.04734274E+00                      1.92290098E+00                     -6.20767887E+03                      3.91710181E+03
