
These predictions were generated by HydroDyn on 21-Jul-2020 at 12:55:09.




    Time                      Wave1Elev                        M1N1Vxi                        M1N1Vzi                        M1N1Axi                        M1N1Azi                       M1N1FDxi                       M1N1FDzi                       M1N1FIxi                       M1N1FIzi                       M1N1FAxi                       M1N1FAzi
   (sec)                            (m)                          (m/s)                          (m/s)                        (m/s^2)                        (m/s^2)                          (N/m)                          (N/m)                          (N/m)                          (N/m)                          (N/m)                          (N/m)
    0.0000                    -3.8253E+00                    -1.3990E-01                     9.6463E-01                     8.1933E-01                    -1.0324E-01                    -4.2994E+02                     2.7130E+02                     6.2391E+03                    -3.9369E+03                    -0.0000E+00                    -0.0000E+00
    0.0250                    -3.7308E+00                    -1.1992E-01                     9.6057E-01                     8.1482E-01                    -1.1480E-01                    -4.0445E+02                     2.5521E+02                     6.2587E+03                    -3.9493E+03                    -0.0000E+00                    -0.0000E+00
    0.0500                    -3.6363E+00                    -9.9951E-02                     9.5652E-01                     8.1030E-01                    -1.2635E-01                    -3.7974E+02                     2.3962E+02                     6.2782E+03                    -3.9616E+03                    -0.0000E+00                    -0.0000E+00
    0.0750                    -3.5418E+00                    -7.9978E-02                     9.5246E-01                     8.0578E-01                    -1.3791E-01                    -3.5580E+02                     2.2452E+02                     6.2978E+03                    -3.9740E+03                    -0.0000E+00                    -0.0000E+00
    0.1000                    -3.4474E+00                    -6.0006E-02                     9.4841E-01                     8.0126E-01                    -1.4946E-01                    -3.3265E+02                     2.0990E+02                     6.3174E+03                    -3.9863E+03                    -0.0000E+00                    -0.0000E+00
    0.1250                    -3.3529E+00                    -4.0033E-02                     9.4435E-01                     7.9675E-01                    -1.6102E-01                    -3.1027E+02                     1.9579E+02                     6.3369E+03                    -3.9987E+03                    -0.0000E+00                    -0.0000E+00
    0.1500                    -3.2584E+00                    -2.0060E-02                     9.4030E-01                     7.9223E-01                    -1.7257E-01                    -2.8868E+02                     1.8216E+02                     6.3565E+03                    -4.0110E+03                    -0.0000E+00                    -0.0000E+00
    0.1750                    -3.1639E+00                    -8.6755E-05                     9.3624E-01                     7.8771E-01                    -1.8413E-01                    -2.6786E+02                     1.6902E+02                     6.3761E+03                    -4.0234E+03                    -0.0000E+00                    -0.0000E+00
    0.2000                    -3.0694E+00                     1.9886E-02                     9.3219E-01                     7.8320E-01                    -1.9568E-01                    -2.4782E+02                     1.5638E+02                     6.3956E+03                    -4.0357E+03                    -0.0000E+00                    -0.0000E+00
    0.2250                    -2.9749E+00                     3.9859E-02                     9.2813E-01                     7.7868E-01                    -2.0724E-01                    -2.2856E+02                     1.4422E+02                     6.4152E+03                    -4.0481E+03                    -0.0000E+00                    -0.0000E+00
    0.2500                    -2.8804E+00                     5.9832E-02                     9.2408E-01                     7.7416E-01                    -2.1879E-01                    -2.1008E+02                     1.3256E+02                     6.4348E+03                    -4.0604E+03                    -0.0000E+00                    -0.0000E+00
    0.2750                    -2.7772E+00                     7.8366E-02                     9.1733E-01                     7.6724E-01                    -2.2871E-01                    -1.9218E+02                     1.2126E+02                     6.4301E+03                    -4.0574E+03                    -0.0000E+00                    -0.0000E+00
    0.3000                    -2.6740E+00                     9.6901E-02                     9.1058E-01                     7.6031E-01                    -2.3863E-01                    -1.7507E+02                     1.1047E+02                     6.4254E+03                    -4.0545E+03                    -0.0000E+00                    -0.0000E+00
    0.3250                    -2.5707E+00                     1.1543E-01                     9.0383E-01                     7.5339E-01                    -2.4855E-01                    -1.5876E+02                     1.0018E+02                     6.4207E+03                    -4.0515E+03                    -0.0000E+00                    -0.0000E+00
    0.3500                    -2.4675E+00                     1.3397E-01                     8.9709E-01                     7.4647E-01                    -2.5847E-01                    -1.4325E+02                     9.0393E+01                     6.4160E+03                    -4.0486E+03                    -0.0000E+00                    -0.0000E+00
    0.3750                    -2.3643E+00                     1.5250E-01                     8.9034E-01                     7.3954E-01                    -2.6839E-01                    -1.2854E+02                     8.1108E+01                     6.4113E+03                    -4.0456E+03                    -0.0000E+00                    -0.0000E+00
    0.4000                    -2.2610E+00                     1.7104E-01                     8.8359E-01                     7.3262E-01                    -2.7831E-01                    -1.1462E+02                     7.2327E+01                     6.4067E+03                    -4.0427E+03                    -0.0000E+00                    -0.0000E+00
    0.4250                    -2.1578E+00                     1.8957E-01                     8.7684E-01                     7.2570E-01                    -2.8823E-01                    -1.0150E+02                     6.4048E+01                     6.4020E+03                    -4.0397E+03                    -0.0000E+00                    -0.0000E+00
    0.4500                    -2.0546E+00                     2.0811E-01                     8.7009E-01                     7.1877E-01                    -2.9815E-01                    -8.9178E+01                     5.6272E+01                     6.3973E+03                    -4.0367E+03                    -0.0000E+00                    -0.0000E+00
    0.4750                    -1.9513E+00                     2.2664E-01                     8.6335E-01                     7.1185E-01                    -3.0807E-01                    -7.7653E+01                     4.9000E+01                     6.3926E+03                    -4.0338E+03                    -0.0000E+00                    -0.0000E+00
    0.5000                    -1.8481E+00                     2.4518E-01                     8.5660E-01                     7.0493E-01                    -3.1799E-01                    -6.6925E+01                     4.2230E+01                     6.3879E+03                    -4.0308E+03                    -0.0000E+00                    -0.0000E+00
    0.5250                    -1.7344E+00                     2.6172E-01                     8.4761E-01                     6.9605E-01                    -3.2589E-01                    -5.7235E+01                     3.6116E+01                     6.3605E+03                    -4.0135E+03                    -0.0000E+00                    -0.0000E+00
    0.5500                    -1.6207E+00                     2.7827E-01                     8.3863E-01                     6.8718E-01                    -3.3380E-01                    -4.8302E+01                     3.0479E+01                     6.3331E+03                    -3.9963E+03                    -0.0000E+00                    -0.0000E+00
    0.5750                    -1.5070E+00                     2.9482E-01                     8.2965E-01                     6.7831E-01                    -3.4170E-01                    -4.0127E+01                     2.5320E+01                     6.3057E+03                    -3.9790E+03                    -0.0000E+00                    -0.0000E+00
    0.6000                    -1.3933E+00                     3.1137E-01                     8.2067E-01                     6.6944E-01                    -3.4961E-01                    -3.2709E+01                     2.0639E+01                     6.2783E+03                    -3.9617E+03                    -0.0000E+00                    -0.0000E+00
    0.6250                    -1.2796E+00                     3.2792E-01                     8.1168E-01                     6.6056E-01                    -3.5752E-01                    -2.6048E+01                     1.6437E+01                     6.2509E+03                    -3.9444E+03                    -0.0000E+00                    -0.0000E+00
    0.6500                    -1.1659E+00                     3.4447E-01                     8.0270E-01                     6.5169E-01                    -3.6542E-01                    -2.0145E+01                     1.2712E+01                     6.2236E+03                    -3.9271E+03                    -0.0000E+00                    -0.0000E+00
    0.6750                    -1.0522E+00                     3.6102E-01                     7.9372E-01                     6.4282E-01                    -3.7333E-01                    -1.4999E+01                     9.4648E+00                     6.1962E+03                    -3.9098E+03                    -0.0000E+00                    -0.0000E+00
    0.7000                    -9.3853E-01                     3.7757E-01                     7.8473E-01                     6.3395E-01                    -3.8124E-01                    -1.0611E+01                     6.6958E+00                     6.1688E+03                    -3.8925E+03                    -0.0000E+00                    -0.0000E+00
    0.7250                    -8.2484E-01                     3.9412E-01                     7.7575E-01                     6.2507E-01                    -3.8914E-01                    -6.9807E+00                     4.4049E+00                     6.1414E+03                    -3.8753E+03                    -0.0000E+00                    -0.0000E+00
    0.7500                    -7.1114E-01                     4.1067E-01                     7.6677E-01                     6.1620E-01                    -3.9705E-01                    -4.1075E+00                     2.5918E+00                     6.1140E+03                    -3.8580E+03                    -0.0000E+00                    -0.0000E+00
    0.7750                    -5.9619E-01                     4.2481E-01                     7.5609E-01                     6.0591E-01                    -4.0268E-01                    -2.0975E+00                     1.3236E+00                     6.0665E+03                    -3.8280E+03                    -0.0000E+00                    -0.0000E+00
    0.8000                    -4.8124E-01                     4.3895E-01                     7.4541E-01                     5.9563E-01                    -4.0832E-01                    -7.5669E-01                     4.7748E-01                     6.0190E+03                    -3.7981E+03                    -0.0000E+00                    -0.0000E+00
    0.8250                    -3.6628E-01                     4.5310E-01                     7.3473E-01                     5.8534E-01                    -4.1396E-01                    -8.4958E-02                     5.3609E-02                     5.9715E+03                    -3.7681E+03                    -0.0000E+00                    -0.0000E+00
    0.8500                    -2.5133E-01                     4.6724E-01                     7.2405E-01                     5.7505E-01                    -4.1959E-01                     8.2328E-02                    -5.1950E-02                     5.9241E+03                    -3.7381E+03                    -0.0000E+00                    -0.0000E+00
    0.8750                    -1.3638E-01                     4.8138E-01                     7.1337E-01                     5.6476E-01                    -4.2523E-01                     7.4880E-01                    -4.7250E-01                     5.8766E+03                    -3.7082E+03                    -0.0000E+00                    -0.0000E+00
    0.9000                    -2.1423E-02                     4.9553E-01                     7.0269E-01                     5.5448E-01                    -4.3086E-01                     2.0844E+00                    -1.3153E+00                     5.8291E+03                    -3.6782E+03                    -0.0000E+00                    -0.0000E+00
    0.9250                     9.3531E-02                     5.0967E-01                     6.9201E-01                     5.4419E-01                    -4.3650E-01                     4.0890E+00                    -2.5802E+00                     5.7816E+03                    -3.6482E+03                    -0.0000E+00                    -0.0000E+00
    0.9500                     2.0848E-01                     5.2381E-01                     6.8133E-01                     5.3390E-01                    -4.4214E-01                     6.7628E+00                    -4.2674E+00                     5.7341E+03                    -3.6183E+03                    -0.0000E+00                    -0.0000E+00
    0.9750                     3.2344E-01                     5.3795E-01                     6.7065E-01                     5.2361E-01                    -4.4777E-01                     1.0106E+01                    -6.3768E+00                     5.6866E+03                    -3.5883E+03                    -0.0000E+00                    -0.0000E+00
    1.0000                     4.3839E-01                     5.5210E-01                     6.5997E-01                     5.1333E-01                    -4.5341E-01                     1.4118E+01                    -8.9084E+00                     5.6392E+03                    -3.5584E+03                    -0.0000E+00                    -0.0000E+00
    1.0250                     5.4543E-01                     5.6355E-01                     6.4818E-01                     5.0220E-01                    -4.5665E-01                     1.8324E+01                    -1.1563E+01                     5.5751E+03                    -3.5180E+03                    -0.0000E+00                    -0.0000E+00
    1.0500                     6.5248E-01                     5.7500E-01                     6.3639E-01                     4.9108E-01                    -4.5990E-01                     2.3079E+01                    -1.4563E+01                     5.5111E+03                    -3.4775E+03                    -0.0000E+00                    -0.0000E+00
    1.0750                     7.5952E-01                     5.8646E-01                     6.2460E-01                     4.7995E-01                    -4.6314E-01                     2.8381E+01                    -1.7909E+01                     5.4471E+03                    -3.4371E+03                    -0.0000E+00                    -0.0000E+00
    1.1000                     8.6657E-01                     5.9791E-01                     6.1281E-01                     4.6883E-01                    -4.6638E-01                     3.4231E+01                    -2.1600E+01                     5.3830E+03                    -3.3967E+03                    -0.0000E+00                    -0.0000E+00
    1.1250                     9.7361E-01                     6.0937E-01                     6.0102E-01                     4.5770E-01                    -4.6962E-01                     4.0629E+01                    -2.5637E+01                     5.3190E+03                    -3.3563E+03                    -0.0000E+00                    -0.0000E+00
    1.1500                     1.0807E+00                     6.2082E-01                     5.8922E-01                     4.4658E-01                    -4.7287E-01                     4.7574E+01                    -3.0020E+01                     5.2549E+03                    -3.3159E+03                    -0.0000E+00                    -0.0000E+00
    1.1750                     1.1877E+00                     6.3227E-01                     5.7743E-01                     4.3545E-01                    -4.7611E-01                     5.5068E+01                    -3.4748E+01                     5.1909E+03                    -3.2755E+03                    -0.0000E+00                    -0.0000E+00
    1.2000                     1.2947E+00                     6.4373E-01                     5.6564E-01                     4.2433E-01                    -4.7935E-01                     6.3109E+01                    -3.9822E+01                     5.1269E+03                    -3.2351E+03                    -0.0000E+00                    -0.0000E+00
    1.2250                     1.4018E+00                     6.5518E-01                     5.5385E-01                     4.1320E-01                    -4.8259E-01                     7.1698E+01                    -4.5242E+01                     5.0628E+03                    -3.1947E+03                    -0.0000E+00                    -0.0000E+00
    1.2500                     1.5088E+00                     6.6663E-01                     5.4206E-01                     4.0208E-01                    -4.8584E-01                     8.0834E+01                    -5.1007E+01                     4.9988E+03                    -3.1543E+03                    -0.0000E+00                    -0.0000E+00
    1.2750                     1.6056E+00                     6.7526E-01                     5.2976E-01                     3.9071E-01                    -4.8670E-01                     8.9205E+01                    -5.6289E+01                     4.9224E+03                    -3.1061E+03                    -0.0000E+00                    -0.0000E+00
    1.3000                     1.7023E+00                     6.8389E-01                     5.1746E-01                     3.7933E-01                    -4.8757E-01                     9.7988E+01                    -6.1831E+01                     4.8460E+03                    -3.0579E+03                    -0.0000E+00                    -0.0000E+00
    1.3250                     1.7991E+00                     6.9252E-01                     5.0515E-01                     3.6796E-01                    -4.8843E-01                     1.0718E+02                    -6.7634E+01                     4.7696E+03                    -3.0097E+03                    -0.0000E+00                    -0.0000E+00
    1.3500                     1.8958E+00                     7.0115E-01                     4.9285E-01                     3.5659E-01                    -4.8929E-01                     1.1679E+02                    -7.3696E+01                     4.6933E+03                    -2.9615E+03                    -0.0000E+00                    -0.0000E+00
    1.3750                     1.9926E+00                     7.0978E-01                     4.8055E-01                     3.4521E-01                    -4.9016E-01                     1.2681E+02                    -8.0019E+01                     4.6169E+03                    -2.9133E+03                    -0.0000E+00                    -0.0000E+00
    1.4000                     2.0893E+00                     7.1841E-01                     4.6825E-01                     3.3384E-01                    -4.9102E-01                     1.3724E+02                    -8.6602E+01                     4.5405E+03                    -2.8651E+03                    -0.0000E+00                    -0.0000E+00
    1.4250                     2.1861E+00                     7.2704E-01                     4.5594E-01                     3.2247E-01                    -4.9189E-01                     1.4809E+02                    -9.3445E+01                     4.4641E+03                    -2.8169E+03                    -0.0000E+00                    -0.0000E+00
    1.4500                     2.2828E+00                     7.3567E-01                     4.4364E-01                     3.1110E-01                    -4.9275E-01                     1.5935E+02                    -1.0055E+02                     4.3877E+03                    -2.7687E+03                    -0.0000E+00                    -0.0000E+00
    1.4750                     2.3796E+00                     7.4430E-01                     4.3134E-01                     2.9972E-01                    -4.9361E-01                     1.7102E+02                    -1.0791E+02                     4.3114E+03                    -2.7205E+03                    -0.0000E+00                    -0.0000E+00
    1.5000                     2.4763E+00                     7.5293E-01                     4.1904E-01                     2.8835E-01                    -4.9448E-01                     1.8310E+02                    -1.1554E+02                     4.2350E+03                    -2.6723E+03                    -0.0000E+00                    -0.0000E+00
    1.5250                     2.5509E+00                     7.5874E-01                     4.0680E-01                     2.7729E-01                    -4.9311E-01                     1.9338E+02                    -1.2203E+02                     4.1509E+03                    -2.6193E+03                    -0.0000E+00                    -0.0000E+00
    1.5500                     2.6255E+00                     7.6456E-01                     3.9457E-01                     2.6623E-01                    -4.9175E-01                     2.0395E+02                    -1.2870E+02                     4.0668E+03                    -2.5662E+03                    -0.0000E+00                    -0.0000E+00
    1.5750                     2.7001E+00                     7.7037E-01                     3.8233E-01                     2.5518E-01                    -4.9038E-01                     2.1480E+02                    -1.3554E+02                     3.9828E+03                    -2.5132E+03                    -0.0000E+00                    -0.0000E+00
    1.6000                     2.7746E+00                     7.7619E-01                     3.7010E-01                     2.4412E-01                    -4.8902E-01                     2.2593E+02                    -1.4256E+02                     3.8987E+03                    -2.4601E+03                    -0.0000E+00                    -0.0000E+00
    1.6250                     2.8492E+00                     7.8200E-01                     3.5786E-01                     2.3306E-01                    -4.8765E-01                     2.3734E+02                    -1.4976E+02                     3.8146E+03                    -2.4070E+03                    -0.0000E+00                    -0.0000E+00
    1.6500                     2.9238E+00                     7.8782E-01                     3.4562E-01                     2.2200E-01                    -4.8628E-01                     2.4903E+02                    -1.5714E+02                     3.7305E+03                    -2.3540E+03                    -0.0000E+00                    -0.0000E+00
    1.6750                     2.9984E+00                     7.9363E-01                     3.3339E-01                     2.1095E-01                    -4.8492E-01                     2.6101E+02                    -1.6470E+02                     3.6464E+03                    -2.3009E+03                    -0.0000E+00                    -0.0000E+00
    1.7000                     3.0729E+00                     7.9944E-01                     3.2115E-01                     1.9989E-01                    -4.8355E-01                     2.7326E+02                    -1.7243E+02                     3.5624E+03                    -2.2479E+03                    -0.0000E+00                    -0.0000E+00
    1.7250                     3.1475E+00                     8.0526E-01                     3.0892E-01                     1.8883E-01                    -4.8219E-01                     2.8580E+02                    -1.8034E+02                     3.4783E+03                    -2.1948E+03                    -0.0000E+00                    -0.0000E+00
    1.7500                     3.2221E+00                     8.1107E-01                     2.9668E-01                     1.7778E-01                    -4.8082E-01                     2.9861E+02                    -1.8843E+02                     3.3942E+03                    -2.1418E+03                    -0.0000E+00                    -0.0000E+00
    1.7750                     3.2701E+00                     8.1422E-01                     2.8504E-01                     1.6754E-01                    -4.7750E-01                     3.0874E+02                    -1.9482E+02                     3.3072E+03                    -2.0869E+03                    -0.0000E+00                    -0.0000E+00
    1.8000                     3.3181E+00                     8.1736E-01                     2.7340E-01                     1.5731E-01                    -4.7418E-01                     3.1903E+02                    -2.0131E+02                     3.2202E+03                    -2.0320E+03                    -0.0000E+00                    -0.0000E+00
    1.8250                     3.3661E+00                     8.2050E-01                     2.6176E-01                     1.4707E-01                    -4.7085E-01                     3.2950E+02                    -2.0792E+02                     3.1333E+03                    -1.9771E+03                    -0.0000E+00                    -0.0000E+00
    1.8500                     3.4141E+00                     8.2365E-01                     2.5011E-01                     1.3684E-01                    -4.6753E-01                     3.4013E+02                    -2.1462E+02                     3.0463E+03                    -1.9222E+03                    -0.0000E+00                    -0.0000E+00
    1.8750                     3.4622E+00                     8.2679E-01                     2.3847E-01                     1.2660E-01                    -4.6421E-01                     3.5093E+02                    -2.2144E+02                     2.9593E+03                    -1.8673E+03                    -0.0000E+00                    -0.0000E+00
    1.9000                     3.5102E+00                     8.2993E-01                     2.2683E-01                     1.1637E-01                    -4.6088E-01                     3.6190E+02                    -2.2836E+02                     2.8723E+03                    -1.8124E+03                    -0.0000E+00                    -0.0000E+00
    1.9250                     3.5582E+00                     8.3308E-01                     2.1519E-01                     1.0613E-01                    -4.5756E-01                     3.7304E+02                    -2.3539E+02                     2.7853E+03                    -1.7576E+03                    -0.0000E+00                    -0.0000E+00
    1.9500                     3.6062E+00                     8.3622E-01                     2.0354E-01                     9.5900E-02                    -4.5423E-01                     3.8435E+02                    -2.4253E+02                     2.6983E+03                    -1.7027E+03                    -0.0000E+00                    -0.0000E+00
    1.9750                     3.6542E+00                     8.3936E-01                     1.9190E-01                     8.5666E-02                    -4.5091E-01                     3.9583E+02                    -2.4977E+02                     2.6113E+03                    -1.6478E+03                    -0.0000E+00                    -0.0000E+00
    2.0000                     3.7022E+00                     8.4251E-01                     1.8026E-01                     7.5431E-02                    -4.4759E-01                     4.0747E+02                    -2.5712E+02                     2.5244E+03                    -1.5929E+03                    -0.0000E+00                    -0.0000E+00
    2.0250                     3.7346E+00                     8.4324E-01                     1.6966E-01                     6.6441E-02                    -4.4268E-01                     4.1582E+02                    -2.6238E+02                     2.4391E+03                    -1.5391E+03                    -0.0000E+00                    -0.0000E+00
    2.0500                     3.7669E+00                     8.4397E-01                     1.5905E-01                     5.7451E-02                    -4.3777E-01                     4.2424E+02                    -2.6770E+02                     2.3538E+03                    -1.4853E+03                    -0.0000E+00                    -0.0000E+00
    2.0750                     3.7993E+00                     8.4470E-01                     1.4845E-01                     4.8461E-02                    -4.3287E-01                     4.3276E+02                    -2.7307E+02                     2.2686E+03                    -1.4315E+03                    -0.0000E+00                    -0.0000E+00
    2.1000                     3.8316E+00                     8.4543E-01                     1.3784E-01                     3.9471E-02                    -4.2796E-01                     4.4136E+02                    -2.7850E+02                     2.1833E+03                    -1.3777E+03                    -0.0000E+00                    -0.0000E+00
    2.1250                     3.8640E+00                     8.4617E-01                     1.2724E-01                     3.0480E-02                    -4.2305E-01                     4.5004E+02                    -2.8398E+02                     2.0981E+03                    -1.3239E+03                    -0.0000E+00                    -0.0000E+00
    2.1500                     3.8963E+00                     8.4690E-01                     1.1663E-01                     2.1490E-02                    -4.1814E-01                     4.5881E+02                    -2.8951E+02                     2.0128E+03                    -1.2701E+03                    -0.0000E+00                    -0.0000E+00
    2.1750                     3.9287E+00                     8.4763E-01                     1.0603E-01                     1.2500E-02                    -4.1324E-01                     4.6766E+02                    -2.9510E+02                     1.9275E+03                    -1.2163E+03                    -0.0000E+00                    -0.0000E+00
    2.2000                     3.9610E+00                     8.4836E-01                     9.5422E-02                     3.5098E-03                    -4.0833E-01                     4.7659E+02                    -3.0074E+02                     1.8423E+03                    -1.1625E+03                    -0.0000E+00                    -0.0000E+00
    2.2250                     3.9934E+00                     8.4910E-01                     8.4817E-02                    -5.4803E-03                    -4.0342E-01                     4.8561E+02                    -3.0643E+02                     1.7570E+03                    -1.1087E+03                    -0.0000E+00                    -0.0000E+00
    2.2500                     4.0258E+00                     8.4983E-01                     7.4212E-02                    -1.4471E-02                    -3.9851E-01                     4.9472E+02                    -3.1217E+02                     1.6718E+03                    -1.0549E+03                    -0.0000E+00                    -0.0000E+00
    2.2750                     4.0401E+00                     8.4850E-01                     6.4986E-02                    -2.1905E-02                    -3.9247E-01                     5.0028E+02                    -3.1568E+02                     1.5924E+03                    -1.0048E+03                    -0.0000E+00                    -0.0000E+00
    2.3000                     4.0543E+00                     8.4718E-01                     5.5759E-02                    -2.9339E-02                    -3.8643E-01                     5.0586E+02                    -3.1920E+02                     1.5131E+03                    -9.5478E+02                    -0.0000E+00                    -0.0000E+00
    2.3250                     4.0686E+00                     8.4585E-01                     4.6533E-02                    -3.6773E-02                    -3.8039E-01                     5.1148E+02                    -3.2275E+02                     1.4338E+03                    -9.0472E+02                    -0.0000E+00                    -0.0000E+00
    2.3500                     4.0829E+00                     8.4453E-01                     3.7307E-02                    -4.4207E-02                    -3.7435E-01                     5.1713E+02                    -3.2631E+02                     1.3544E+03                    -8.5466E+02                    -0.0000E+00                    -0.0000E+00
    2.3750                     4.0972E+00                     8.4320E-01                     2.8081E-02                    -5.1641E-02                    -3.6831E-01                     5.2281E+02                    -3.2990E+02                     1.2751E+03                    -8.0460E+02                    -0.0000E+00                    -0.0000E+00
    2.4000                     4.1115E+00                     8.4187E-01                     1.8854E-02                    -5.9075E-02                    -3.6227E-01                     5.2852E+02                    -3.3350E+02                     1.1958E+03                    -7.5454E+02                    -0.0000E+00                    -0.0000E+00
    2.4250                     4.1258E+00                     8.4055E-01                     9.6281E-03                    -6.6509E-02                    -3.5623E-01                     5.3426E+02                    -3.3712E+02                     1.1164E+03                    -7.0449E+02                    -0.0000E+00                    -0.0000E+00
    2.4500                     4.1401E+00                     8.3922E-01                     4.0180E-04                    -7.3944E-02                    -3.5018E-01                     5.4003E+02                    -3.4076E+02                     1.0371E+03                    -6.5443E+02                    -0.0000E+00                    -0.0000E+00
    2.4750                     4.1544E+00                     8.3790E-01                    -8.8244E-03                    -8.1378E-02                    -3.4414E-01                     5.4584E+02                    -3.4443E+02                     9.5779E+02                    -6.0437E+02                    -0.0000E+00                    -0.0000E+00
    2.5000                     4.1687E+00                     8.3657E-01                    -1.8051E-02                    -8.8812E-02                    -3.3810E-01                     5.5167E+02                    -3.4811E+02                     8.7846E+02                    -5.5431E+02                    -0.0000E+00                    -0.0000E+00
    2.5250                     4.1561E+00                     8.3360E-01                    -2.5676E-02                    -9.4503E-02                    -3.3142E-01                     5.5407E+02                    -3.4962E+02                     8.0858E+02                    -5.1022E+02                    -0.0000E+00                    -0.0000E+00
    2.5500                     4.1434E+00                     8.3063E-01                    -3.3302E-02                    -1.0019E-01                    -3.2474E-01                     5.5648E+02                    -3.5114E+02                     7.3870E+02                    -4.6613E+02                    -0.0000E+00                    -0.0000E+00
    2.5750                     4.1308E+00                     8.2766E-01                    -4.0928E-02                    -1.0589E-01                    -3.1806E-01                     5.5889E+02                    -3.5266E+02                     6.6882E+02                    -4.2203E+02                    -0.0000E+00                    -0.0000E+00
    2.6000                     4.1181E+00                     8.2469E-01                    -4.8553E-02                    -1.1158E-01                    -3.1138E-01                     5.6130E+02                    -3.5419E+02                     5.9894E+02                    -3.7794E+02                    -0.0000E+00                    -0.0000E+00
    2.6250                     4.1054E+00                     8.2172E-01                    -5.6179E-02                    -1.1727E-01                    -3.0470E-01                     5.6372E+02                    -3.5571E+02                     5.2906E+02                    -3.3384E+02                    -0.0000E+00                    -0.0000E+00
    2.6500                     4.0928E+00                     8.1876E-01                    -6.3804E-02                    -1.2296E-01                    -2.9802E-01                     5.6615E+02                    -3.5725E+02                     4.5918E+02                    -2.8975E+02                    -0.0000E+00                    -0.0000E+00
    2.6750                     4.0801E+00                     8.1579E-01                    -7.1430E-02                    -1.2865E-01                    -2.9134E-01                     5.6858E+02                    -3.5878E+02                     3.8931E+02                    -2.4566E+02                    -0.0000E+00                    -0.0000E+00
    2.7000                     4.0675E+00                     8.1282E-01                    -7.9055E-02                    -1.3434E-01                    -2.8466E-01                     5.7102E+02                    -3.6032E+02                     3.1943E+02                    -2.0156E+02                    -0.0000E+00                    -0.0000E+00
    2.7250                     4.0548E+00                     8.0985E-01                    -8.6681E-02                    -1.4003E-01                    -2.7798E-01                     5.7346E+02                    -3.6186E+02                     2.4955E+02                    -1.5747E+02                    -0.0000E+00                    -0.0000E+00
    2.7500                     4.0422E+00                     8.0688E-01                    -9.4307E-02                    -1.4573E-01                    -2.7131E-01                     5.7591E+02                    -3.6340E+02                     1.7967E+02                    -1.1337E+02                    -0.0000E+00                    -0.0000E+00
    2.7750                     4.0065E+00                     8.0271E-01                    -1.0024E-01                    -1.4962E-01                    -2.6449E-01                     5.7534E+02                    -3.6305E+02                     1.2188E+02                    -7.6906E+01                    -0.0000E+00                    -0.0000E+00
    2.8000                     3.9709E+00                     7.9855E-01                    -1.0616E-01                    -1.5351E-01                    -2.5768E-01                     5.7477E+02                    -3.6269E+02                     6.4085E+01                    -4.0438E+01                    -0.0000E+00                    -0.0000E+00
    2.8250                     3.9352E+00                     7.9438E-01                    -1.1209E-01                    -1.5741E-01                    -2.5087E-01                     5.7421E+02                    -3.6233E+02                     6.2922E+00                    -3.9704E+00                    -0.0000E+00                    -0.0000E+00
    2.8500                     3.8996E+00                     7.9021E-01                    -1.1802E-01                    -1.6130E-01                    -2.4405E-01                     5.7364E+02                    -3.6197E+02                    -5.1500E+01                     3.2497E+01                    -0.0000E+00                    -0.0000E+00
    2.8750                     3.8639E+00                     7.8604E-01                    -1.2395E-01                    -1.6520E-01                    -2.3724E-01                     5.7308E+02                    -3.6162E+02                    -1.0929E+02                     6.8965E+01                    -0.0000E+00                    -0.0000E+00
    2.9000                     3.8283E+00                     7.8188E-01                    -1.2988E-01                    -1.6909E-01                    -2.3043E-01                     5.7251E+02                    -3.6126E+02                    -1.6709E+02                     1.0543E+02                    -0.0000E+00                    -0.0000E+00
    2.9250                     3.7926E+00                     7.7771E-01                    -1.3581E-01                    -1.7298E-01                    -2.2362E-01                     5.7195E+02                    -3.6091E+02                    -2.2488E+02                     1.4190E+02                    -0.0000E+00                    -0.0000E+00
    2.9500                     3.7570E+00                     7.7354E-01                    -1.4174E-01                    -1.7688E-01                    -2.1680E-01                     5.7139E+02                    -3.6055E+02                    -2.8267E+02                     1.7837E+02                    -0.0000E+00                    -0.0000E+00
    2.9750                     3.7213E+00                     7.6938E-01                    -1.4766E-01                    -1.8077E-01                    -2.0999E-01                     5.7082E+02                    -3.6019E+02                    -3.4046E+02                     2.1484E+02                    -0.0000E+00                    -0.0000E+00
    3.0000                     3.6857E+00                     7.6521E-01                    -1.5359E-01                    -1.8466E-01                    -2.0318E-01                     5.7026E+02                    -3.5984E+02                    -3.9826E+02                     2.5130E+02                    -0.0000E+00                    -0.0000E+00
    3.0250                     3.6474E+00                     7.6029E-01                    -1.5785E-01                    -1.8684E-01                    -1.9671E-01                     5.6731E+02                    -3.5797E+02                    -4.4235E+02                     2.7913E+02                    -0.0000E+00                    -0.0000E+00
    3.0500                     3.6091E+00                     7.5536E-01                    -1.6211E-01                    -1.8901E-01                    -1.9025E-01                     5.6436E+02                    -3.5612E+02                    -4.8645E+02                     3.0696E+02                    -0.0000E+00                    -0.0000E+00
    3.0750                     3.5708E+00                     7.5044E-01                    -1.6637E-01                    -1.9118E-01                    -1.8378E-01                     5.6142E+02                    -3.5426E+02                    -5.3055E+02                     3.3478E+02                    -0.0000E+00                    -0.0000E+00
    3.1000                     3.5325E+00                     7.4552E-01                    -1.7063E-01                    -1.9335E-01                    -1.7732E-01                     5.5849E+02                    -3.5241E+02                    -5.7465E+02                     3.6261E+02                    -0.0000E+00                    -0.0000E+00
    3.1250                     3.4943E+00                     7.4060E-01                    -1.7489E-01                    -1.9552E-01                    -1.7085E-01                     5.5557E+02                    -3.5057E+02                    -6.1875E+02                     3.9044E+02                    -0.0000E+00                    -0.0000E+00
    3.1500                     3.4560E+00                     7.3567E-01                    -1.7915E-01                    -1.9770E-01                    -1.6439E-01                     5.5266E+02                    -3.4873E+02                    -6.6285E+02                     4.1826E+02                    -0.0000E+00                    -0.0000E+00
    3.1750                     3.4177E+00                     7.3075E-01                    -1.8341E-01                    -1.9987E-01                    -1.5792E-01                     5.4975E+02                    -3.4690E+02                    -7.0694E+02                     4.4609E+02                    -0.0000E+00                    -0.0000E+00
    3.2000                     3.3794E+00                     7.2583E-01                    -1.8767E-01                    -2.0204E-01                    -1.5146E-01                     5.4685E+02                    -3.4507E+02                    -7.5104E+02                     4.7392E+02                    -0.0000E+00                    -0.0000E+00
    3.2250                     3.3411E+00                     7.2091E-01                    -1.9193E-01                    -2.0421E-01                    -1.4499E-01                     5.4396E+02                    -3.4324E+02                    -7.9514E+02                     5.0174E+02                    -0.0000E+00                    -0.0000E+00
    3.2500                     3.3029E+00                     7.1599E-01                    -1.9619E-01                    -2.0639E-01                    -1.3853E-01                     5.4108E+02                    -3.4142E+02                    -8.3924E+02                     5.2957E+02                    -0.0000E+00                    -0.0000E+00
    3.2750                     3.2755E+00                     7.1072E-01                    -1.9892E-01                    -2.0703E-01                    -1.3283E-01                     5.3652E+02                    -3.3855E+02                    -8.6913E+02                     5.4843E+02                    -0.0000E+00                    -0.0000E+00
    3.3000                     3.2482E+00                     7.0545E-01                    -2.0165E-01                    -2.0767E-01                    -1.2714E-01                     5.3198E+02                    -3.3568E+02                    -8.9901E+02                     5.6728E+02                    -0.0000E+00                    -0.0000E+00
    3.3250                     3.2209E+00                     7.0018E-01                    -2.0438E-01                    -2.0832E-01                    -1.2144E-01                     5.2746E+02                    -3.3283E+02                    -9.2890E+02                     5.8614E+02                    -0.0000E+00                    -0.0000E+00
    3.3500                     3.1936E+00                     6.9491E-01                    -2.0711E-01                    -2.0896E-01                    -1.1575E-01                     5.2296E+02                    -3.2999E+02                    -9.5878E+02                     6.0500E+02                    -0.0000E+00                    -0.0000E+00
    3.3750                     3.1663E+00                     6.8964E-01                    -2.0984E-01                    -2.0960E-01                    -1.1006E-01                     5.1847E+02                    -3.2716E+02                    -9.8867E+02                     6.2386E+02                    -0.0000E+00                    -0.0000E+00
    3.4000                     3.1389E+00                     6.8437E-01                    -2.1257E-01                    -2.1025E-01                    -1.0436E-01                     5.1401E+02                    -3.2435E+02                    -1.0186E+03                     6.4272E+02                    -0.0000E+00                    -0.0000E+00
    3.4250                     3.1116E+00                     6.7910E-01                    -2.1531E-01                    -2.1089E-01                    -9.8667E-02                     5.0957E+02                    -3.2154E+02                    -1.0484E+03                     6.6158E+02                    -0.0000E+00                    -0.0000E+00
    3.4500                     3.0843E+00                     6.7383E-01                    -2.1804E-01                    -2.1154E-01                    -9.2973E-02                     5.0514E+02                    -3.1875E+02                    -1.0783E+03                     6.8043E+02                    -0.0000E+00                    -0.0000E+00
    3.4750                     3.0570E+00                     6.6856E-01                    -2.2077E-01                    -2.1218E-01                    -8.7279E-02                     5.0074E+02                    -3.1597E+02                    -1.1082E+03                     6.9929E+02                    -0.0000E+00                    -0.0000E+00
    3.5000                     3.0297E+00                     6.6329E-01                    -2.2350E-01                    -2.1282E-01                    -8.1585E-02                     4.9635E+02                    -3.1320E+02                    -1.1381E+03                     7.1815E+02                    -0.0000E+00                    -0.0000E+00
    3.5250                     2.9995E+00                     6.5802E-01                    -2.2494E-01                    -2.1223E-01                    -7.7000E-02                     4.9099E+02                    -3.0982E+02                    -1.1543E+03                     7.2839E+02                    -0.0000E+00                    -0.0000E+00
    3.5500                     2.9693E+00                     6.5276E-01                    -2.2638E-01                    -2.1164E-01                    -7.2415E-02                     4.8565E+02                    -3.0645E+02                    -1.1706E+03                     7.3864E+02                    -0.0000E+00                    -0.0000E+00
    3.5750                     2.9392E+00                     6.4749E-01                    -2.2782E-01                    -2.1105E-01                    -6.7829E-02                     4.8034E+02                    -3.0310E+02                    -1.1868E+03                     7.4888E+02                    -0.0000E+00                    -0.0000E+00
    3.6000                     2.9090E+00                     6.4222E-01                    -2.2926E-01                    -2.1045E-01                    -6.3244E-02                     4.7506E+02                    -2.9977E+02                    -1.2030E+03                     7.5912E+02                    -0.0000E+00                    -0.0000E+00
    3.6250                     2.8788E+00                     6.3695E-01                    -2.3070E-01                    -2.0986E-01                    -5.8659E-02                     4.6981E+02                    -2.9646E+02                    -1.2193E+03                     7.6936E+02                    -0.0000E+00                    -0.0000E+00
    3.6500                     2.8486E+00                     6.3168E-01                    -2.3214E-01                    -2.0927E-01                    -5.4073E-02                     4.6459E+02                    -2.9316E+02                    -1.2355E+03                     7.7960E+02                    -0.0000E+00                    -0.0000E+00
    3.6750                     2.8185E+00                     6.2641E-01                    -2.3358E-01                    -2.0868E-01                    -4.9488E-02                     4.5940E+02                    -2.8989E+02                    -1.2517E+03                     7.8985E+02                    -0.0000E+00                    -0.0000E+00
    3.7000                     2.7883E+00                     6.2114E-01                    -2.3502E-01                    -2.0808E-01                    -4.4903E-02                     4.5424E+02                    -2.8663E+02                    -1.2679E+03                     8.0009E+02                    -0.0000E+00                    -0.0000E+00
    3.7250                     2.7581E+00                     6.1587E-01                    -2.3647E-01                    -2.0749E-01                    -4.0317E-02                     4.4911E+02                    -2.8339E+02                    -1.2842E+03                     8.1033E+02                    -0.0000E+00                    -0.0000E+00
    3.7500                     2.7279E+00                     6.1061E-01                    -2.3791E-01                    -2.0690E-01                    -3.5732E-02                     4.4400E+02                    -2.8017E+02                    -1.3004E+03                     8.2057E+02                    -0.0000E+00                    -0.0000E+00
    3.7750                     2.6833E+00                     6.0560E-01                    -2.3836E-01                    -2.0543E-01                    -3.2485E-02                     4.3852E+02                    -2.7671E+02                    -1.3045E+03                     8.2317E+02                    -0.0000E+00                    -0.0000E+00
    3.8000                     2.6387E+00                     6.0060E-01                    -2.3882E-01                    -2.0397E-01                    -2.9239E-02                     4.3306E+02                    -2.7327E+02                    -1.3086E+03                     8.2577E+02                    -0.0000E+00                    -0.0000E+00
    3.8250                     2.5941E+00                     5.9560E-01                    -2.3928E-01                    -2.0250E-01                    -2.5992E-02                     4.2765E+02                    -2.6985E+02                    -1.3128E+03                     8.2836E+02                    -0.0000E+00                    -0.0000E+00
    3.8500                     2.5495E+00                     5.9059E-01                    -2.3974E-01                    -2.0104E-01                    -2.2745E-02                     4.2226E+02                    -2.6645E+02                    -1.3169E+03                     8.3096E+02                    -0.0000E+00                    -0.0000E+00
    3.8750                     2.5049E+00                     5.8559E-01                    -2.4020E-01                    -1.9957E-01                    -1.9498E-02                     4.1691E+02                    -2.6308E+02                    -1.3210E+03                     8.3356E+02                    -0.0000E+00                    -0.0000E+00
    3.9000                     2.4603E+00                     5.8059E-01                    -2.4065E-01                    -1.9811E-01                    -1.6252E-02                     4.1160E+02                    -2.5972E+02                    -1.3251E+03                     8.3615E+02                    -0.0000E+00                    -0.0000E+00
    3.9250                     2.4157E+00                     5.7558E-01                    -2.4111E-01                    -1.9664E-01                    -1.3005E-02                     4.0632E+02                    -2.5639E+02                    -1.3292E+03                     8.3875E+02                    -0.0000E+00                    -0.0000E+00
    3.9500                     2.3710E+00                     5.7058E-01                    -2.4157E-01                    -1.9518E-01                    -9.7583E-03                     4.0107E+02                    -2.5308E+02                    -1.3333E+03                     8.4135E+02                    -0.0000E+00                    -0.0000E+00
    3.9750                     2.3264E+00                     5.6558E-01                    -2.4203E-01                    -1.9371E-01                    -6.5117E-03                     3.9585E+02                    -2.4979E+02                    -1.3375E+03                     8.4394E+02                    -0.0000E+00                    -0.0000E+00
    4.0000                     2.2818E+00                     5.6057E-01                    -2.4249E-01                    -1.9225E-01                    -3.2649E-03                     3.9068E+02                    -2.4652E+02                    -1.3416E+03                     8.4654E+02                    -0.0000E+00                    -0.0000E+00
    4.0250                     2.2343E+00                     5.5600E-01                    -2.4231E-01                    -1.9031E-01                    -1.4662E-03                     3.8557E+02                    -2.4330E+02                    -1.3359E+03                     8.4298E+02                    -0.0000E+00                    -0.0000E+00
    4.0500                     2.1868E+00                     5.5143E-01                    -2.4214E-01                    -1.8838E-01                     3.3252E-04                     3.8050E+02                    -2.4010E+02                    -1.3303E+03                     8.3942E+02                    -0.0000E+00                    -0.0000E+00
    4.0750                     2.1393E+00                     5.4686E-01                    -2.4196E-01                    -1.8644E-01                     2.1312E-03                     3.7546E+02                    -2.3692E+02                    -1.3246E+03                     8.3585E+02                    -0.0000E+00                    -0.0000E+00
    4.1000                     2.0918E+00                     5.4229E-01                    -2.4179E-01                    -1.8450E-01                     3.9299E-03                     3.7045E+02                    -2.3376E+02                    -1.3190E+03                     8.3229E+02                    -0.0000E+00                    -0.0000E+00
    4.1250                     2.0443E+00                     5.3772E-01                    -2.4162E-01                    -1.8257E-01                     5.7287E-03                     3.6548E+02                    -2.3062E+02                    -1.3133E+03                     8.2873E+02                    -0.0000E+00                    -0.0000E+00
    4.1500                     1.9968E+00                     5.3315E-01                    -2.4144E-01                    -1.8063E-01                     7.5274E-03                     3.6054E+02                    -2.2750E+02                    -1.3077E+03                     8.2516E+02                    -0.0000E+00                    -0.0000E+00
    4.1750                     1.9493E+00                     5.2858E-01                    -2.4127E-01                    -1.7870E-01                     9.3261E-03                     3.5563E+02                    -2.2441E+02                    -1.3020E+03                     8.2160E+02                    -0.0000E+00                    -0.0000E+00
    4.2000                     1.9017E+00                     5.2401E-01                    -2.4110E-01                    -1.7676E-01                     1.1125E-02                     3.5076E+02                    -2.2133E+02                    -1.2964E+03                     8.1804E+02                    -0.0000E+00                    -0.0000E+00
    4.2250                     1.8542E+00                     5.1944E-01                    -2.4092E-01                    -1.7483E-01                     1.2924E-02                     3.4592E+02                    -2.1828E+02                    -1.2908E+03                     8.1448E+02                    -0.0000E+00                    -0.0000E+00
    4.2500                     1.8067E+00                     5.1487E-01                    -2.4075E-01                    -1.7289E-01                     1.4722E-02                     3.4112E+02                    -2.1525E+02                    -1.2851E+03                     8.1091E+02                    -0.0000E+00                    -0.0000E+00
    4.2750                     1.7558E+00                     5.1080E-01                    -2.4031E-01                    -1.7089E-01                     1.5088E-02                     3.3668E+02                    -2.1245E+02                    -1.2726E+03                     8.0305E+02                    -0.0000E+00                    -0.0000E+00
    4.3000                     1.7049E+00                     5.0674E-01                    -2.3986E-01                    -1.6890E-01                     1.5454E-02                     3.3228E+02                    -2.0967E+02                    -1.2602E+03                     7.9519E+02                    -0.0000E+00                    -0.0000E+00
    4.3250                     1.6540E+00                     5.0267E-01                    -2.3942E-01                    -1.6690E-01                     1.5820E-02                     3.2790E+02                    -2.0691E+02                    -1.2477E+03                     7.8732E+02                    -0.0000E+00                    -0.0000E+00
    4.3500                     1.6030E+00                     4.9860E-01                    -2.3898E-01                    -1.6490E-01                     1.6186E-02                     3.2355E+02                    -2.0416E+02                    -1.2353E+03                     7.7946E+02                    -0.0000E+00                    -0.0000E+00
    4.3750                     1.5521E+00                     4.9453E-01                    -2.3854E-01                    -1.6290E-01                     1.6552E-02                     3.1923E+02                    -2.0144E+02                    -1.2228E+03                     7.7159E+02                    -0.0000E+00                    -0.0000E+00
    4.4000                     1.5012E+00                     4.9046E-01                    -2.3809E-01                    -1.6091E-01                     1.6918E-02                     3.1494E+02                    -1.9873E+02                    -1.2103E+03                     7.6373E+02                    -0.0000E+00                    -0.0000E+00
    4.4250                     1.4503E+00                     4.8639E-01                    -2.3765E-01                    -1.5891E-01                     1.7283E-02                     3.1068E+02                    -1.9604E+02                    -1.1979E+03                     7.5587E+02                    -0.0000E+00                    -0.0000E+00
    4.4500                     1.3993E+00                     4.8232E-01                    -2.3721E-01                    -1.5691E-01                     1.7649E-02                     3.0645E+02                    -1.9337E+02                    -1.1854E+03                     7.4800E+02                    -0.0000E+00                    -0.0000E+00
    4.4750                     1.3484E+00                     4.7825E-01                    -2.3676E-01                    -1.5491E-01                     1.8015E-02                     3.0225E+02                    -1.9072E+02                    -1.1729E+03                     7.4014E+02                    -0.0000E+00                    -0.0000E+00
    4.5000                     1.2975E+00                     4.7418E-01                    -2.3632E-01                    -1.5292E-01                     1.8381E-02                     2.9807E+02                    -1.8809E+02                    -1.1605E+03                     7.3227E+02                    -0.0000E+00                    -0.0000E+00
    4.5250                     1.2411E+00                     4.7057E-01                    -2.3595E-01                    -1.5124E-01                     1.7448E-02                     2.9441E+02                    -1.8578E+02                    -1.1445E+03                     7.2218E+02                    -0.0000E+00                    -0.0000E+00
    4.5500                     1.1847E+00                     4.6697E-01                    -2.3559E-01                    -1.4956E-01                     1.6514E-02                     2.9078E+02                    -1.8349E+02                    -1.1285E+03                     7.1208E+02                    -0.0000E+00                    -0.0000E+00
    4.5750                     1.1283E+00                     4.6337E-01                    -2.3522E-01                    -1.4788E-01                     1.5581E-02                     2.8717E+02                    -1.8121E+02                    -1.1125E+03                     7.0198E+02                    -0.0000E+00                    -0.0000E+00
    4.6000                     1.0719E+00                     4.5977E-01                    -2.3485E-01                    -1.4620E-01                     1.4647E-02                     2.8358E+02                    -1.7894E+02                    -1.0965E+03                     6.9188E+02                    -0.0000E+00                    -0.0000E+00
    4.6250                     1.0155E+00                     4.5616E-01                    -2.3448E-01                    -1.4452E-01                     1.3714E-02                     2.8001E+02                    -1.7669E+02                    -1.0805E+03                     6.8178E+02                    -0.0000E+00                    -0.0000E+00
    4.6500                     9.5909E-01                     4.5256E-01                    -2.3411E-01                    -1.4284E-01                     1.2781E-02                     2.7647E+02                    -1.7446E+02                    -1.0645E+03                     6.7168E+02                    -0.0000E+00                    -0.0000E+00
    4.6750                     9.0269E-01                     4.4896E-01                    -2.3375E-01                    -1.4116E-01                     1.1847E-02                     2.7295E+02                    -1.7223E+02                    -1.0485E+03                     6.6158E+02                    -0.0000E+00                    -0.0000E+00
    4.7000                     8.4629E-01                     4.4536E-01                    -2.3338E-01                    -1.3948E-01                     1.0914E-02                     2.6945E+02                    -1.7003E+02                    -1.0324E+03                     6.5148E+02                    -0.0000E+00                    -0.0000E+00
    4.7250                     7.8989E-01                     4.4175E-01                    -2.3301E-01                    -1.3780E-01                     9.9804E-03                     2.6598E+02                    -1.6783E+02                    -1.0164E+03                     6.4138E+02                    -0.0000E+00                    -0.0000E+00
    4.7500                     7.3348E-01                     4.3815E-01                    -2.3264E-01                    -1.3612E-01                     9.0470E-03                     2.6252E+02                    -1.6565E+02                    -1.0004E+03                     6.3129E+02                    -0.0000E+00                    -0.0000E+00
    4.7750                     6.7719E-01                     4.3489E-01                    -2.3265E-01                    -1.3508E-01                     7.0515E-03                     2.5961E+02                    -1.6382E+02                    -9.8422E+02                     6.2105E+02                    -0.0000E+00                    -0.0000E+00
    4.8000                     6.2089E-01                     4.3164E-01                    -2.3265E-01                    -1.3404E-01                     5.0560E-03                     2.5671E+02                    -1.6199E+02                    -9.6799E+02                     6.1081E+02                    -0.0000E+00                    -0.0000E+00
    4.8250                     5.6460E-01                     4.2838E-01                    -2.3266E-01                    -1.3300E-01                     3.0605E-03                     2.5383E+02                    -1.6017E+02                    -9.5177E+02                     6.0058E+02                    -0.0000E+00                    -0.0000E+00
    4.8500                     5.0831E-01                     4.2512E-01                    -2.3266E-01                    -1.3196E-01                     1.0650E-03                     2.5097E+02                    -1.5836E+02                    -9.3555E+02                     5.9034E+02                    -0.0000E+00                    -0.0000E+00
    4.8750                     4.5201E-01                     4.2187E-01                    -2.3266E-01                    -1.3091E-01                    -9.3053E-04                     2.4812E+02                    -1.5657E+02                    -9.1933E+02                     5.8010E+02                    -0.0000E+00                    -0.0000E+00
    4.9000                     3.9572E-01                     4.1861E-01                    -2.3267E-01                    -1.2987E-01                    -2.9261E-03                     2.4529E+02                    -1.5478E+02                    -9.0310E+02                     5.6987E+02                    -0.0000E+00                    -0.0000E+00
    4.9250                     3.3942E-01                     4.1535E-01                    -2.3267E-01                    -1.2883E-01                    -4.9216E-03                     2.4247E+02                    -1.5300E+02                    -8.8688E+02                     5.5963E+02                    -0.0000E+00                    -0.0000E+00
    4.9500                     2.8313E-01                     4.1210E-01                    -2.3268E-01                    -1.2779E-01                    -6.9171E-03                     2.3968E+02                    -1.5124E+02                    -8.7066E+02                     5.4939E+02                    -0.0000E+00                    -0.0000E+00
    4.9750                     2.2684E-01                     4.0884E-01                    -2.3268E-01                    -1.2675E-01                    -8.9126E-03                     2.3689E+02                    -1.4948E+02                    -8.5443E+02                     5.3916E+02                    -0.0000E+00                    -0.0000E+00
    5.0000                     1.7054E-01                     4.0558E-01                    -2.3269E-01                    -1.2571E-01                    -1.0908E-02                     2.3413E+02                    -1.4774E+02                    -8.3821E+02                     5.2892E+02                    -0.0000E+00                    -0.0000E+00
    5.0250                     1.2277E-01                     4.0248E-01                    -2.3329E-01                    -1.2555E-01                    -1.3648E-02                     2.3183E+02                    -1.4628E+02                    -8.2487E+02                     5.2050E+02                    -0.0000E+00                    -0.0000E+00
    5.0500                     7.5003E-02                     3.9938E-01                    -2.3389E-01                    -1.2539E-01                    -1.6387E-02                     2.2954E+02                    -1.4484E+02                    -8.1153E+02                     5.1208E+02                    -0.0000E+00                    -0.0000E+00
    5.0750                     2.7235E-02                     3.9628E-01                    -2.3450E-01                    -1.2522E-01                    -1.9126E-02                     2.2726E+02                    -1.4340E+02                    -7.9819E+02                     5.0367E+02                    -0.0000E+00                    -0.0000E+00
    5.1000                    -2.0534E-02                     3.9317E-01                    -2.3510E-01                    -1.2506E-01                    -2.1866E-02                     2.2499E+02                    -1.4197E+02                    -7.8485E+02                     4.9525E+02                    -0.0000E+00                    -0.0000E+00
    5.1250                    -6.8303E-02                     3.9007E-01                    -2.3570E-01                    -1.2490E-01                    -2.4605E-02                     2.2273E+02                    -1.4055E+02                    -7.7151E+02                     4.8683E+02                    -0.0000E+00                    -0.0000E+00
    5.1500                    -1.1607E-01                     3.8697E-01                    -2.3631E-01                    -1.2474E-01                    -2.7345E-02                     2.2049E+02                    -1.3913E+02                    -7.5817E+02                     4.7841E+02                    -0.0000E+00                    -0.0000E+00
    5.1750                    -1.6384E-01                     3.8387E-01                    -2.3691E-01                    -1.2457E-01                    -3.0084E-02                     2.1826E+02                    -1.3772E+02                    -7.4483E+02                     4.6999E+02                    -0.0000E+00                    -0.0000E+00
    5.2000                    -2.1161E-01                     3.8076E-01                    -2.3751E-01                    -1.2441E-01                    -3.2824E-02                     2.1603E+02                    -1.3632E+02                    -7.3149E+02                     4.6158E+02                    -0.0000E+00                    -0.0000E+00
    5.2250                    -2.5938E-01                     3.7766E-01                    -2.3812E-01                    -1.2425E-01                    -3.5563E-02                     2.1382E+02                    -1.3493E+02                    -7.1815E+02                     4.5316E+02                    -0.0000E+00                    -0.0000E+00
    5.2500                    -3.0715E-01                     3.7456E-01                    -2.3872E-01                    -1.2409E-01                    -3.8303E-02                     2.1163E+02                    -1.3354E+02                    -7.0481E+02                     4.4474E+02                    -0.0000E+00                    -0.0000E+00
    5.2750                    -3.3918E-01                     3.7137E-01                    -2.4006E-01                    -1.2494E-01                    -4.1415E-02                     2.0974E+02                    -1.3235E+02                    -6.9698E+02                     4.3980E+02                    -0.0000E+00                    -0.0000E+00
    5.3000                    -3.7121E-01                     3.6819E-01                    -2.4141E-01                    -1.2579E-01                    -4.4527E-02                     2.0787E+02                    -1.3117E+02                    -6.8916E+02                     4.3486E+02                    -0.0000E+00                    -0.0000E+00
    5.3250                    -4.0324E-01                     3.6500E-01                    -2.4275E-01                    -1.2665E-01                    -4.7639E-02                     2.0601E+02                    -1.2999E+02                    -6.8133E+02                     4.2993E+02                    -0.0000E+00                    -0.0000E+00
    5.3500                    -4.3527E-01                     3.6181E-01                    -2.4409E-01                    -1.2750E-01                    -5.0751E-02                     2.0415E+02                    -1.2882E+02                    -6.7351E+02                     4.2499E+02                    -0.0000E+00                    -0.0000E+00
    5.3750                    -4.6730E-01                     3.5862E-01                    -2.4543E-01                    -1.2836E-01                    -5.3863E-02                     2.0230E+02                    -1.2765E+02                    -6.6568E+02                     4.2005E+02                    -0.0000E+00                    -0.0000E+00
    5.4000                    -4.9933E-01                     3.5544E-01                    -2.4678E-01                    -1.2921E-01                    -5.6975E-02                     2.0046E+02                    -1.2649E+02                    -6.5786E+02                     4.1512E+02                    -0.0000E+00                    -0.0000E+00
    5.4250                    -5.3136E-01                     3.5225E-01                    -2.4812E-01                    -1.3007E-01                    -6.0087E-02                     1.9863E+02                    -1.2534E+02                    -6.5003E+02                     4.1018E+02                    -0.0000E+00                    -0.0000E+00
    5.4500                    -5.6339E-01                     3.4906E-01                    -2.4946E-01                    -1.3092E-01                    -6.3200E-02                     1.9681E+02                    -1.2419E+02                    -6.4221E+02                     4.0524E+02                    -0.0000E+00                    -0.0000E+00
    5.4750                    -5.9542E-01                     3.4588E-01                    -2.5081E-01                    -1.3178E-01                    -6.6312E-02                     1.9500E+02                    -1.2304E+02                    -6.3439E+02                     4.0030E+02                    -0.0000E+00                    -0.0000E+00
    5.5000                    -6.2745E-01                     3.4269E-01                    -2.5215E-01                    -1.3263E-01                    -6.9424E-02                     1.9319E+02                    -1.2190E+02                    -6.2656E+02                     3.9537E+02                    -0.0000E+00                    -0.0000E+00
    5.5250                    -6.4445E-01                     3.3916E-01                    -2.5427E-01                    -1.3453E-01                    -7.2515E-02                     1.9151E+02                    -1.2084E+02                    -6.2622E+02                     3.9515E+02                    -0.0000E+00                    -0.0000E+00
    5.5500                    -6.6144E-01                     3.3563E-01                    -2.5640E-01                    -1.3644E-01                    -7.5606E-02                     1.8983E+02                    -1.1979E+02                    -6.2589E+02                     3.9494E+02                    -0.0000E+00                    -0.0000E+00
    5.5750                    -6.7843E-01                     3.3209E-01                    -2.5853E-01                    -1.3834E-01                    -7.8698E-02                     1.8816E+02                    -1.1873E+02                    -6.2555E+02                     3.9473E+02                    -0.0000E+00                    -0.0000E+00
    5.6000                    -6.9542E-01                     3.2856E-01                    -2.6065E-01                    -1.4024E-01                    -8.1789E-02                     1.8650E+02                    -1.1768E+02                    -6.2522E+02                     3.9452E+02                    -0.0000E+00                    -0.0000E+00
[...]
   11.1000                    -3.2761E+00                    -6.0289E-01                     5.7799E-01                     4.8095E-01                     3.2675E-01                    -7.1833E+02                     4.5328E+02                     1.9382E+03                    -1.2230E+03                    -0.0000E+00                    -0.0000E+00
   11.1250                    -3.2504E+00                    -5.9065E-01                     5.8602E-01                     4.8813E-01                     3.1981E-01                    -7.0772E+02                     4.4658E+02                     2.0197E+03                    -1.2745E+03                    -0.0000E+00                    -0.0000E+00
   11.1500                    -3.2248E+00                    -5.7842E-01                     5.9404E-01                     4.9531E-01                     3.1287E-01                    -6.9719E+02                     4.3993E+02                     2.1013E+03                    -1.3259E+03                    -0.0000E+00                    -0.0000E+00
   11.1750                    -3.1991E+00                    -5.6618E-01                     6.0206E-01                     5.0248E-01                     3.0592E-01                    -6.8674E+02                     4.3334E+02                     2.1828E+03                    -1.3774E+03                    -0.0000E+00                    -0.0000E+00
   11.2000                    -3.1735E+00                    -5.5395E-01                     6.1008E-01                     5.0966E-01                     2.9898E-01                    -6.7637E+02                     4.2679E+02                     2.2644E+03                    -1.4288E+03                    -0.0000E+00                    -0.0000E+00
   11.2250                    -3.1478E+00                    -5.4171E-01                     6.1811E-01                     5.1684E-01                     2.9203E-01                    -6.6607E+02                     4.2030E+02                     2.3459E+03                    -1.4803E+03                    -0.0000E+00                    -0.0000E+00
   11.2500                    -3.1221E+00                    -5.2948E-01                     6.2613E-01                     5.2402E-01                     2.8509E-01                    -6.5586E+02                     4.1385E+02                     2.4274E+03                    -1.5317E+03                    -0.0000E+00                    -0.0000E+00
   11.2750                    -3.0824E+00                    -5.1565E-01                     6.3226E-01                     5.2952E-01                     2.7697E-01                    -6.4181E+02                     4.0499E+02                     2.5024E+03                    -1.5791E+03                    -0.0000E+00                    -0.0000E+00
   11.3000                    -3.0426E+00                    -5.0183E-01                     6.3840E-01                     5.3503E-01                     2.6884E-01                    -6.2791E+02                     3.9622E+02                     2.5774E+03                    -1.6264E+03                    -0.0000E+00                    -0.0000E+00
   11.3250                    -3.0028E+00                    -4.8800E-01                     6.4453E-01                     5.4053E-01                     2.6072E-01                    -6.1417E+02                     3.8754E+02                     2.6524E+03                    -1.6737E+03                    -0.0000E+00                    -0.0000E+00
   11.3500                    -2.9630E+00                    -4.7417E-01                     6.5066E-01                     5.4604E-01                     2.5259E-01                    -6.0057E+02                     3.7897E+02                     2.7274E+03                    -1.7210E+03                    -0.0000E+00                    -0.0000E+00
   11.3750                    -2.9232E+00                    -4.6035E-01                     6.5680E-01                     5.5154E-01                     2.4447E-01                    -5.8713E+02                     3.7049E+02                     2.8024E+03                    -1.7683E+03                    -0.0000E+00                    -0.0000E+00
   11.4000                    -2.8834E+00                    -4.4652E-01                     6.6293E-01                     5.5705E-01                     2.3635E-01                    -5.7384E+02                     3.6210E+02                     2.8774E+03                    -1.8157E+03                    -0.0000E+00                    -0.0000E+00
   11.4250                    -2.8437E+00                    -4.3269E-01                     6.6906E-01                     5.6255E-01                     2.2822E-01                    -5.6071E+02                     3.5381E+02                     2.9524E+03                    -1.8630E+03                    -0.0000E+00                    -0.0000E+00
   11.4500                    -2.8039E+00                    -4.1887E-01                     6.7520E-01                     5.6806E-01                     2.2010E-01                    -5.4772E+02                     3.4562E+02                     3.0274E+03                    -1.9103E+03                    -0.0000E+00                    -0.0000E+00
   11.4750                    -2.7641E+00                    -4.0504E-01                     6.8133E-01                     5.7356E-01                     2.1198E-01                    -5.3489E+02                     3.3752E+02                     3.1024E+03                    -1.9576E+03                    -0.0000E+00                    -0.0000E+00
   11.5000                    -2.7243E+00                    -3.9122E-01                     6.8746E-01                     5.7907E-01                     2.0385E-01                    -5.2221E+02                     3.2952E+02                     3.1774E+03                    -2.0050E+03                    -0.0000E+00                    -0.0000E+00
   11.5250                    -2.6897E+00                    -3.7625E-01                     6.9145E-01                     5.8267E-01                     1.9487E-01                    -5.0657E+02                     3.1965E+02                     3.2427E+03                    -2.0462E+03                    -0.0000E+00                    -0.0000E+00
   11.5500                    -2.6551E+00                    -3.6128E-01                     6.9544E-01                     5.8626E-01                     1.8588E-01                    -4.9116E+02                     3.0993E+02                     3.3081E+03                    -2.0874E+03                    -0.0000E+00                    -0.0000E+00
   11.5750                    -2.6204E+00                    -3.4631E-01                     6.9942E-01                     5.8986E-01                     1.7690E-01                    -4.7599E+02                     3.0036E+02                     3.3735E+03                    -2.1287E+03                    -0.0000E+00                    -0.0000E+00
   11.6000                    -2.5858E+00                    -3.3134E-01                     7.0341E-01                     5.9346E-01                     1.6792E-01                    -4.6106E+02                     2.9093E+02                     3.4388E+03                    -2.1699E+03                    -0.0000E+00                    -0.0000E+00
   11.6250                    -2.5512E+00                    -3.1638E-01                     7.0740E-01                     5.9706E-01                     1.5893E-01                    -4.4637E+02                     2.8166E+02                     3.5042E+03                    -2.2112E+03                    -0.0000E+00                    -0.0000E+00
   11.6500                    -2.5166E+00                    -3.0141E-01                     7.1139E-01                     6.0065E-01                     1.4995E-01                    -4.3191E+02                     2.7254E+02                     3.5696E+03                    -2.2524E+03                    -0.0000E+00                    -0.0000E+00
   11.6750                    -2.4820E+00                    -2.8644E-01                     7.1537E-01                     6.0425E-01                     1.4096E-01                    -4.1770E+02                     2.6357E+02                     3.6349E+03                    -2.2937E+03                    -0.0000E+00                    -0.0000E+00
   11.7000                    -2.4473E+00                    -2.7147E-01                     7.1936E-01                     6.0785E-01                     1.3198E-01                    -4.0372E+02                     2.5475E+02                     3.7003E+03                    -2.3349E+03                    -0.0000E+00                    -0.0000E+00
   11.7250                    -2.4127E+00                    -2.5650E-01                     7.2335E-01                     6.1144E-01                     1.2300E-01                    -3.8998E+02                     2.4608E+02                     3.7656E+03                    -2.3762E+03                    -0.0000E+00                    -0.0000E+00
   11.7500                    -2.3781E+00                    -2.4154E-01                     7.2734E-01                     6.1504E-01                     1.1401E-01                    -3.7647E+02                     2.3756E+02                     3.8310E+03                    -2.4174E+03                    -0.0000E+00                    -0.0000E+00
   11.7750                    -2.3520E+00                    -2.2592E-01                     7.2901E-01                     6.1658E-01                     1.0453E-01                    -3.6099E+02                     2.2779E+02                     3.8840E+03                    -2.4509E+03                    -0.0000E+00                    -0.0000E+00
   11.8000                    -2.3258E+00                    -2.1031E-01                     7.3068E-01                     6.1811E-01                     9.5048E-02                    -3.4583E+02                     2.1822E+02                     3.9370E+03                    -2.4843E+03                    -0.0000E+00                    -0.0000E+00
   11.8250                    -2.2997E+00                    -1.9470E-01                     7.3235E-01                     6.1964E-01                     8.5567E-02                    -3.3099E+02                     2.0886E+02                     3.9901E+03                    -2.5178E+03                    -0.0000E+00                    -0.0000E+00
   11.8500                    -2.2736E+00                    -1.7909E-01                     7.3402E-01                     6.2118E-01                     7.6085E-02                    -3.1649E+02                     1.9971E+02                     4.0431E+03                    -2.5512E+03                    -0.0000E+00                    -0.0000E+00
   11.8750                    -2.2475E+00                    -1.6348E-01                     7.3569E-01                     6.2271E-01                     6.6603E-02                    -3.0230E+02                     1.9076E+02                     4.0961E+03                    -2.5847E+03                    -0.0000E+00                    -0.0000E+00
   11.9000                    -2.2213E+00                    -1.4786E-01                     7.3737E-01                     6.2424E-01                     5.7121E-02                    -2.8844E+02                     1.8201E+02                     4.1491E+03                    -2.6181E+03                    -0.0000E+00                    -0.0000E+00
   11.9250                    -2.1952E+00                    -1.3225E-01                     7.3904E-01                     6.2578E-01                     4.7639E-02                    -2.7491E+02                     1.7347E+02                     4.2022E+03                    -2.6516E+03                    -0.0000E+00                    -0.0000E+00
   11.9500                    -2.1691E+00                    -1.1664E-01                     7.4071E-01                     6.2731E-01                     3.8158E-02                    -2.6170E+02                     1.6514E+02                     4.2552E+03                    -2.6851E+03                    -0.0000E+00                    -0.0000E+00
   11.9750                    -2.1430E+00                    -1.0103E-01                     7.4238E-01                     6.2884E-01                     2.8676E-02                    -2.4882E+02                     1.5701E+02                     4.3082E+03                    -2.7185E+03                    -0.0000E+00                    -0.0000E+00
   12.0000                    -2.1169E+00                    -8.5417E-02                     7.4405E-01                     6.3038E-01                     1.9194E-02                    -2.3626E+02                     1.4908E+02                     4.3612E+03                    -2.7520E+03                    -0.0000E+00                    -0.0000E+00
   12.0250                    -2.0846E+00                    -6.9688E-02                     7.4333E-01                     6.2978E-01                     9.6021E-03                    -2.2268E+02                     1.4051E+02                     4.3997E+03                    -2.7762E+03                    -0.0000E+00                    -0.0000E+00
   12.0500                    -2.0524E+00                    -5.3959E-02                     7.4261E-01                     6.2918E-01                     9.6280E-06                    -2.0950E+02                     1.3220E+02                     4.4382E+03                    -2.8005E+03                    -0.0000E+00                    -0.0000E+00
   12.0750                    -2.0202E+00                    -3.8230E-02                     7.4189E-01                     6.2858E-01                    -9.5825E-03                    -1.9673E+02                     1.2414E+02                     4.4767E+03                    -2.8248E+03                    -0.0000E+00                    -0.0000E+00
   12.1000                    -1.9880E+00                    -2.2500E-02                     7.4117E-01                     6.2799E-01                    -1.9175E-02                    -1.8435E+02                     1.1633E+02                     4.5151E+03                    -2.8491E+03                    -0.0000E+00                    -0.0000E+00
   12.1250                    -1.9557E+00                    -6.7715E-03                     7.4045E-01                     6.2739E-01                    -2.8767E-02                    -1.7238E+02                     1.0877E+02                     4.5536E+03                    -2.8734E+03                    -0.0000E+00                    -0.0000E+00
   12.1500                    -1.9235E+00                     8.9574E-03                     7.3973E-01                     6.2679E-01                    -3.8359E-02                    -1.6081E+02                     1.0147E+02                     4.5921E+03                    -2.8977E+03                    -0.0000E+00                    -0.0000E+00
   12.1750                    -1.8913E+00                     2.4687E-02                     7.3901E-01                     6.2619E-01                    -4.7952E-02                    -1.4964E+02                     9.4425E+01                     4.6306E+03                    -2.9219E+03                    -0.0000E+00                    -0.0000E+00
   12.2000                    -1.8591E+00                     4.0416E-02                     7.3828E-01                     6.2559E-01                    -5.7544E-02                    -1.3887E+02                     8.7631E+01                     4.6690E+03                    -2.9462E+03                    -0.0000E+00                    -0.0000E+00
   12.2250                    -1.8268E+00                     5.6145E-02                     7.3756E-01                     6.2500E-01                    -6.7136E-02                    -1.2851E+02                     8.1091E+01                     4.7075E+03                    -2.9705E+03                    -0.0000E+00                    -0.0000E+00
   12.2500                    -1.7946E+00                     7.1874E-02                     7.3684E-01                     6.2440E-01                    -7.6728E-02                    -1.1855E+02                     7.4804E+01                     4.7460E+03                    -2.9948E+03                    -0.0000E+00                    -0.0000E+00
   12.2750                    -1.7566E+00                     8.7189E-02                     7.3375E-01                     6.2169E-01                    -8.6038E-02                    -1.0836E+02                     6.8377E+01                     4.7684E+03                    -3.0089E+03                    -0.0000E+00                    -0.0000E+00
   12.3000                    -1.7187E+00                     1.0250E-01                     7.3066E-01                     6.1899E-01                    -9.5347E-02                    -9.8633E+01                     6.2238E+01                     4.7907E+03                    -3.0230E+03                    -0.0000E+00                    -0.0000E+00
   12.3250                    -1.6807E+00                     1.1782E-01                     7.2757E-01                     6.1628E-01                    -1.0466E-01                    -8.9363E+01                     5.6389E+01                     4.8131E+03                    -3.0371E+03                    -0.0000E+00                    -0.0000E+00
   12.3500                    -1.6427E+00                     1.3313E-01                     7.2447E-01                     6.1358E-01                    -1.1397E-01                    -8.0549E+01                     5.0827E+01                     4.8354E+03                    -3.0512E+03                    -0.0000E+00                    -0.0000E+00
   12.3750                    -1.6047E+00                     1.4845E-01                     7.2138E-01                     6.1087E-01                    -1.2328E-01                    -7.2194E+01                     4.5555E+01                     4.8578E+03                    -3.0653E+03                    -0.0000E+00                    -0.0000E+00
   12.4000                    -1.5668E+00                     1.6376E-01                     7.1829E-01                     6.0817E-01                    -1.3259E-01                    -6.4295E+01                     4.0571E+01                     4.8802E+03                    -3.0794E+03                    -0.0000E+00                    -0.0000E+00
   12.4250                    -1.5288E+00                     1.7908E-01                     7.1520E-01                     6.0546E-01                    -1.4189E-01                    -5.6854E+01                     3.5876E+01                     4.9025E+03                    -3.0935E+03                    -0.0000E+00                    -0.0000E+00
   12.4500                    -1.4908E+00                     1.9439E-01                     7.1211E-01                     6.0276E-01                    -1.5120E-01                    -4.9871E+01                     3.1469E+01                     4.9249E+03                    -3.1076E+03                    -0.0000E+00                    -0.0000E+00
   12.4750                    -1.4528E+00                     2.0971E-01                     7.0902E-01                     6.0005E-01                    -1.6051E-01                    -4.3345E+01                     2.7351E+01                     4.9472E+03                    -3.1217E+03                    -0.0000E+00                    -0.0000E+00
