
These predictions were generated by HydroDyn on 28-Jan-2021 at 09:51:08.




    Time                       HydroFxi                       HydroFyi                       HydroFzi                       HydroMxi                       HydroMyi                       HydroMzi                        M1N1Vxi                        M1N1Vzi                        M1N1Axi                        M1N1Azi                       M1N1FDxi                       M1N1FDzi                       M1N1FIxi                       M1N1FIzi
   (sec)                            (N)                            (N)                            (N)                          (N-m)                          (N-m)                          (N-m)                          (m/s)                          (m/s)                        (m/s^2)                        (m/s^2)                          (N/m)                          (N/m)                          (N/m)                          (N/m)
    0.0000                     6.494837496038E+005                     9.653194042725E-010                     9.014474130347E+006                     2.912923835474E-008                    -9.455641387738E+006                    -3.849004448497E-008                     1.089066147804E+000                    -4.943417310715E-001                    -3.939074277878E-001                    -5.395691394806E-001                     1.505928635870E+003                    -9.502546627686E+002                    -3.769244350019E+002                     2.378427458914E+002
    0.0250                     6.037860421708E+005                     9.015141064217E-010                     9.012684262513E+006                     2.657746012158E-008                    -8.569447784566E+006                    -3.821075400534E-008                     1.077918094230E+000                    -5.071669461254E-001                    -4.041269691321E-001                    -5.340459226739E-001                     1.499367700757E+003                    -9.461146530531E+002                    -4.735972232669E+002                     2.988441543404E+002
    0.0500                     5.581169660652E+005                     8.604228440845E-010                     9.010900370229E+006                     2.856458586331E-008                    -7.683929912187E+006                    -3.806503723336E-008                     1.066770040657E+000                    -5.199921611793E-001                    -4.143465104765E-001                    -5.285227058672E-001                     1.492821088997E+003                    -9.419836815036E+002                    -5.702700115320E+002                     3.598455627894E+002
    0.0750                     5.124765257664E+005                     6.107852938697E-010                     9.009122351052E+006                     4.187858854143E-008                    -6.799087532374E+006                    -3.852994312492E-008                     1.055621986252E+000                    -5.328173771888E-001                    -4.245660525822E-001                    -5.229994886490E-001                     1.486288800104E+003                    -9.378617478136E+002                    -6.669428069998E+002                     4.208469757833E+002
    0.1000                     4.668647380911E+005                     8.069716769810E-010                     9.007350101693E+006                     2.424599176987E-008                    -5.914920655017E+006                    -3.882831556279E-008                     1.044473933509E+000                    -5.456425912872E-001                    -4.347855931651E-001                    -5.174762722538E-001                     1.479770835537E+003                    -9.337488529031E+002                    -7.636155880622E+002                     4.818483796873E+002
    0.1250                     4.212816015558E+005                     7.475031878201E-010                     9.005583516813E+006                     2.143227029183E-008                    -5.031428944751E+006                    -4.005476506030E-008                     1.033325880766E+000                    -5.584678053856E-001                    -4.450051337481E-001                    -5.119530558586E-001                     1.473267194320E+003                    -9.296449961574E+002                    -8.602883691245E+002                     5.428497835913E+002
    0.1500                     3.757271065707E+005                     4.782415782834E-010                     9.003822489414E+006                     2.867994497446E-008                    -4.148611919330E+006                    -3.883530866680E-008                     1.022177824700E+000                    -5.712930233062E-001                    -4.552246773766E-001                    -5.064298378174E-001                     1.466777874523E+003                    -9.255501763575E+002                    -9.569611789977E+002                     6.038512056752E+002
    0.1750                     3.302012964582E+005                     7.109113644987E-010                     9.002066913182E+006                     1.577273495146E-008                    -3.266470132581E+006                    -3.806503723336E-008                     1.011029775280E+000                    -5.841182335824E-001                    -4.654442149139E-001                    -5.009066230682E-001                     1.460302881941E+003                    -9.214643971603E+002                    -1.053633931249E+003                     6.648525913994E+002
    0.2000                     2.847041181375E+005                     7.971054372113E-010                     9.000316676717E+006                     2.498151452368E-008                    -2.385002281698E+006                    -3.596775655090E-008                     9.998817192140E-001                    -5.969434515029E-001                    -4.756637585425E-001                    -4.953834050270E-001                     1.453842208854E+003                    -9.173876536953E+002                    -1.150306741122E+003                     7.258540134832E+002
    0.2250                     2.392356255792E+005                     6.226030975498E-010                     8.998571671357E+006                     3.611410243076E-008                    -1.504209150112E+006                    -3.984139407276E-008                     9.887336697931E-001                    -6.097686617791E-001                    -4.858832960797E-001                    -4.898601902779E-001                     1.447395862965E+003                    -9.133199508223E+002                    -1.246979493374E+003                     7.868553992074E+002
    0.2500                     1.937957631080E+005                     9.699814736142E-010                     8.996831782930E+006                     3.041380108870E-008                    -6.240894049319E+005                    -4.011024910648E-008                     9.775856137276E-001                    -6.225938796997E-001                    -4.961028397083E-001                    -4.843369722366E-001                     1.440963836590E+003                    -9.092612836921E+002                    -1.343652303247E+003                     8.478568212913E+002
    0.2750                     1.464695880723E+005                     7.845829021191E-010                     8.994789030352E+006                     1.440403812891E-008                     2.793151550579E+005                    -3.845190767356E-008                     9.640304056274E-001                    -6.338860479098E-001                    -5.051008096929E-001                    -4.776211573563E-001                     1.427474380900E+003                    -9.007493144914E+002                    -1.437016561568E+003                     9.067705172605E+002
    0.3000                     9.918178050861E+004                     6.433113590443E-010                     8.992756670023E+006                     4.292636152092E-008                     1.181960626876E+006                    -4.020565889766E-008                     9.504751975273E-001                    -6.451782161198E-001                    -5.140987796774E-001                    -4.709053424760E-001                     1.414048362666E+003                    -8.922773749017E+002                    -1.530380819888E+003                     9.656842132297E+002
    0.3250                     5.193235018912E+004                     7.510810549893E-010                     8.990734522711E+006                     2.475773519528E-008                     2.083846273731E+006                    -3.796092671975E-008                     9.369200055862E-001                    -6.564703708686E-001                    -5.230967389355E-001                    -4.641895356015E-001                     1.400685797779E+003                    -8.838454749508E+002                    -1.623744966910E+003                     1.024597838968E+003
    0.3500                     4.721176045340E+003                     7.174165775337E-010                     8.988722462459E+006                     2.429890083588E-008                     2.984974604217E+006                    -3.819514149406E-008                     9.233647974861E-001                    -6.677625390787E-001                    -5.320947089200E-001                    -4.574737207212E-001                     1.387386654379E+003                    -8.754535945355E+002                    -1.717109225230E+003                     1.083511534938E+003
    0.3750                    -4.245169587993E+004                     9.651025638380E-010                     8.986720367729E+006                     3.593108910405E-008                     3.885344922032E+006                    -3.842412499289E-008                     9.098095893860E-001                    -6.790547072887E-001                    -5.410926789045E-001                    -4.507579058409E-001                     1.374150948435E+003                    -8.671017437313E+002                    -1.810473483551E+003                     1.142425230907E+003
    0.4000                    -8.958627787957E+004                     6.776805679121E-010                     8.984728111665E+006                     3.538638593259E-008                     4.784957627938E+006                    -3.650899027541E-008                     8.962543812859E-001                    -6.903468754988E-001                    -5.500906488891E-001                    -4.440420909605E-001                     1.360978679946E+003                    -8.587899225382E+002                    -1.903837741872E+003                     1.201338926876E+003
    0.4250                    -1.366825843375E+005                     8.849800232913E-010                     8.982745564430E+006                     3.693028982621E-008                     5.683813144728E+006                    -3.818126370625E-008                     8.826991731857E-001                    -7.016390437089E-001                    -5.590886188736E-001                    -4.373262760802E-001                     1.347869848912E+003                    -8.505181309561E+002                    -1.997202000192E+003                     1.260252622845E+003
    0.4500                    -1.837405757645E+005                     8.115253261054E-010                     8.980772595457E+006                     2.743354615697E-008                     6.581910847646E+006                    -4.005126850830E-008                     8.691439812447E-001                    -7.129311984576E-001                    -5.680865781317E-001                    -4.306104692058E-001                     1.334824470847E+003                    -8.422863787742E+002                    -2.090566147214E+003                     1.319166248584E+003
    0.4750                    -2.307603832606E+005                     5.490399801467E-010                     8.978809063960E+006                     2.533366338930E-008                     7.479253346614E+006                    -3.983098573190E-008                     8.555887731445E-001                    -7.242233666677E-001                    -5.770845481162E-001                    -4.238946543254E-001                     1.321842514647E+003                    -8.340946463666E+002                    -2.183930405534E+003                     1.378079944553E+003
    0.5000                    -2.777419721000E+005                     7.508100044462E-010                     8.976854832947E+006                     3.669783688043E-008                     8.375840064101E+006                    -3.845014584503E-008                     8.420335650444E-001                    -7.355155348778E-001                    -5.860825181007E-001                    -4.171788394451E-001                     1.308923995903E+003                    -8.259429435699E+002                    -2.277294663855E+003                     1.436993640522E+003
    0.5250                    -3.253533696265E+005                     7.027798482051E-010                     8.974677760709E+006                     3.691294259145E-008                     9.272489622126E+006                    -4.004088727250E-008                     8.264050155912E-001                    -7.449966280641E-001                    -5.936373519374E-001                    -4.094357981616E-001                     1.289662631402E+003                    -8.137888474243E+002                    -2.365051392943E+003                     1.492368934556E+003
    0.5500                    -3.729049710661E+005                     8.675243683143E-010                     8.972514716508E+006                     3.012757171517E-008                     1.016812122448E+007                    -3.985353036083E-008                     8.107764288766E-001                    -7.544777438550E-001                    -6.011922037863E-001                    -4.016927384171E-001                     1.270543993430E+003                    -8.017248130166E+002                    -2.452808331260E+003                     1.547744360616E+003
    0.5750                    -4.203965797083E+005                     7.454432036924E-010                     8.970365558510E+006                     3.374100071563E-008                     1.106273118074E+007                    -4.018658371569E-008                     7.951478794234E-001                    -7.639588370413E-001                    -6.087470376230E-001                    -3.939496971336E-001                     1.251568173152E+003                    -7.897508978727E+002                    -2.540565060349E+003                     1.603119654650E+003
    0.6000                    -4.678284555319E+005                     9.721498779591E-010                     8.968230118909E+006                     3.081192012644E-008                     1.195632437356E+007                    -3.996457299208E-008                     7.795192927088E-001                    -7.734399528323E-001                    -6.163018894719E-001                    -3.862066373891E-001                     1.232735080085E+003                    -7.778670448962E+002                    -2.628321998666E+003                     1.658495080709E+003
    0.6250                    -5.152004096689E+005                     5.688266697945E-010                     8.966108244663E+006                     2.920903563464E-008                     1.284889719905E+007                    -3.822116234620E-008                     7.638907432556E-001                    -7.829210460186E-001                    -6.238567233086E-001                    -3.784635961056E-001                     1.214044804031E+003                    -7.660733107540E+002                    -2.716078727755E+003                     1.713870374743E+003
    0.6500                    -5.625125966969E+005                     7.560141748741E-010                     8.963999761512E+006                     2.011127836488E-008                     1.374045249117E+007                    -3.807719046209E-008                     7.482621938024E-001                    -7.924021392049E-001                    -6.314115571453E-001                    -3.707205548220E-001                     1.195497299919E+003                    -7.543696670051E+002                    -2.803835456843E+003                     1.769245668777E+003
    0.6750                    -6.097651751090E+005                     9.015141064217E-010                     8.961904489140E+006                     3.348165955597E-008                     1.463099312581E+007                    -4.006170226014E-008                     7.326336070878E-001                    -8.018832549959E-001                    -6.389664089941E-001                    -3.629774950776E-001                     1.177092524038E+003                    -7.427560860682E+002                    -2.891592395160E+003                     1.824621094837E+003
    0.7000                    -6.569579703888E+005                     7.850165829881E-010                     8.959822255783E+006                     2.729650300237E-008                     1.552051567048E+007                    -3.827667349743E-008                     7.170050576346E-001                    -8.113643481822E-001                    -6.465212428308E-001                    -3.552344537940E-001                     1.158830564149E+003                    -7.312326233210E+002                    -2.979349124249E+003                     1.879996388871E+003
    0.7250                    -7.040912637144E+005                     1.008958541715E-009                     8.957752863137E+006                     2.970429918703E-008                     1.640902525147E+007                    -3.660786612541E-008                     7.013764709200E-001                    -8.208454639731E-001                    -6.540760946797E-001                    -3.474913940496E-001                     1.140711333173E+003                    -7.197992238153E+002                    -3.067106062566E+003                     1.935371814930E+003
    0.7500                    -7.511648987516E+005                     9.137113808622E-010                     8.955696124137E+006                     3.776902862684E-008                     1.729651882239E+007                    -3.994896048080E-008                     6.857479214668E-001                    -8.303265571594E-001                    -6.616309285164E-001                    -3.397483527660E-001                     1.122734917508E+003                    -7.084559420698E+002                    -3.154862791655E+003                     1.990747108964E+003
    0.7750                    -7.975417990002E+005                     9.199455433540E-010                     8.953494065320E+006                     2.796523890236E-008                     1.816005051305E+007                    -3.652460956296E-008                     6.684308336421E-001                    -8.377630937705E-001                    -6.675566080325E-001                    -3.311687372490E-001                     1.099423058546E+003                    -6.937459470881E+002                    -3.234851210399E+003                     2.041220528533E+003
    0.8000                    -8.438281977917E+005                     1.048965601880E-009                     8.951308088523E+006                     3.578623969380E-008                     1.902216456541E+007                    -3.820901928187E-008                     6.511137045302E-001                    -8.451996481116E-001                    -6.734823016766E-001                    -3.225891012766E-001                     1.076355707924E+003                    -6.791902390920E+002                    -3.314839819850E+003                     2.091694068440E+003
    0.8250                    -8.900239580629E+005                     9.117598169517E-010                     8.949137985658E+006                     2.473344906662E-008                     1.988285821102E+007                    -3.828536066734E-008                     6.337966167055E-001                    -8.526361847226E-001                    -6.794079811927E-001                    -3.140094857596E-001                     1.053532975635E+003                    -6.647888874887E+002                    -3.394828238595E+003                     2.142167488009E+003
    0.8500                    -9.361308168143E+005                     6.143089509303E-010                     8.946983370696E+006                     3.455805547281E-008                     2.074219508262E+007                    -3.824890436929E-008                     6.164794875936E-001                    -8.600727390638E-001                    -6.853336748368E-001                    -3.054298497871E-001                     1.030954752852E+003                    -6.505418236069E+002                    -3.474816848046E+003                     2.192641027916E+003
    0.8750                    -9.821572344036E+005                     8.040985412239E-010                     8.944843650156E+006                     2.851341152077E-008                     2.160051567835E+007                    -3.825932626267E-008                     5.991623997688E-001                    -8.675092756748E-001                    -6.912593543530E-001                    -2.968502342701E-001                     1.008621147236E+003                    -6.364491153818E+002                    -3.554805266790E+003                     2.243114447485E+003
    0.9000                    -1.028104867543E+006                     8.145610921884E-010                     8.942718557427E+006                     3.828250677573E-008                     2.245788077901E+007                    -4.007212584759E-008                     5.818453119441E-001                    -8.749458122859E-001                    -6.971850338691E-001                    -2.882706187531E-001                     9.865321046647E+002                    -6.225107286620E+002                    -3.634793685535E+003                     2.293587867054E+003
    0.9250                    -1.073973947121E+006                     9.981165199902E-010                     8.940607834976E+006                     2.913877933386E-008                     2.331429455778E+007                    -3.832524575476E-008                     5.645281828322E-001                    -8.823823666270E-001                    -7.031107275132E-001                    -2.796909827806E-001                     9.646875733489E+002                    -6.087266307675E+002                    -3.714782294986E+003                     2.344061406961E+003
    0.9500                    -1.119764386499E+006                     7.619772868228E-010                     8.938511232118E+006                     3.017874605771E-008                     2.416975528671E+007                    -3.826279570962E-008                     5.472110950075E-001                    -8.898189032380E-001                    -7.090364070293E-001                    -2.711113672636E-001                     9.430876574509E+002                    -5.950968874261E+002                    -3.794770713731E+003                     2.394534826530E+003
    0.9750                    -1.165476546836E+006                     8.438887609541E-010                     8.936428469815E+006                     3.434381712353E-008                     2.502426962339E+007                    -3.836167494775E-008                     5.298939658956E-001                    -8.972554575792E-001                    -7.149621006734E-001                    -2.625317312912E-001                     9.217322539742E+002                    -5.816214336458E+002                    -3.874759323182E+003                     2.445008366437E+003
    1.0000                    -1.211110364399E+006                     7.692414413785E-010                     8.934359280169E+006                     4.338779796553E-008                     2.587783629975E+007                    -3.826973460352E-008                     5.125768780708E-001                    -9.046919941902E-001                    -7.208877801895E-001                    -2.539521157742E-001                     9.006214647492E+002                    -5.683003336827E+002                    -3.954747741926E+003                     2.495481786006E+003
    1.0250                    -1.254715046664E+006                     7.789450508222E-010                     8.932214326295E+006                     4.580513512931E-008                     2.668387556927E+007                    -3.829055128524E-008                     4.939976601164E-001                    -9.099008987342E-001                    -7.250383993143E-001                    -2.447471870350E-001                     8.753771494222E+002                    -5.523709411627E+002                    -4.024998286276E+003                     2.539810518284E+003
    1.0500                    -1.298203134854E+006                     7.855586840744E-010                     8.930085024002E+006                     2.731992176930E-008                     2.748842762513E+007                    -3.812575255502E-008                     4.754184421620E-001                    -9.151098032781E-001                    -7.291890184391E-001                    -2.355422582959E-001                     8.504916787719E+002                    -5.366679828967E+002                    -4.095248830625E+003                     2.584139250563E+003
    1.0750                    -1.341575028780E+006                     7.189344605751E-010                     8.927971054608E+006                     3.474627296995E-008                     2.829149982965E+007                    -3.827840822090E-008                     4.568391356149E-001                    -9.203187326601E-001                    -7.333396573555E-001                    -2.263372856642E-001                     8.259649367018E+002                    -5.211913856268E+002                    -4.165499709955E+003                     2.628468194217E+003
    1.1000                    -1.384830663349E+006                     6.664590754268E-010                     8.925872204728E+006                     2.834167389665E-008                     2.909309596021E+007                    -4.007558174202E-008                     4.382599176605E-001                    -9.255276372041E-001                    -7.374902764803E-001                    -2.171323569251E-001                     8.017971571163E+002                    -5.059412969487E+002                    -4.235750254304E+003                     2.672796926495E+003
    1.1250                    -1.427970560793E+006                     8.519660671391E-010                     8.923788185362E+006                     3.916634838674E-008                     2.989322881983E+007                    -3.835647077732E-008                     4.196806997061E-001                    -9.307365417480E-001                    -7.416408956051E-001                    -2.079274281859E-001                     7.779882222076E+002                    -4.909176425246E+002                    -4.306000798653E+003                     2.717125658774E+003
    1.1500                    -1.470995013255E+006                     7.293970115396E-010                     8.921718677356E+006                     4.370785444685E-008                     3.069190537882E+007                    -3.824891792181E-008                     4.011014817517E-001                    -9.359454462920E-001                    -7.457915147299E-001                    -1.987224994468E-001                     7.545381319756E+002                    -4.761204223547E+002                    -4.376251343002E+003                     2.761454391052E+003
    1.1750                    -1.513904640534E+006                     7.247349421979E-010                     8.919663540972E+006                     3.339318865869E-008                     3.148914949699E+007                    -3.825585681572E-008                     3.825222637973E-001                    -9.411543508360E-001                    -7.499421338546E-001                    -1.895175707077E-001                     7.314468864205E+002                    -4.615496364388E+002                    -4.446501887351E+003                     2.805783123330E+003
    1.2000                    -1.556699991516E+006                     9.325222885548E-010                     8.917622424457E+006                     2.641179402962E-008                     3.228497323792E+007                    -3.811881366111E-008                     3.639429572501E-001                    -9.463632802180E-001                    -7.540927727711E-001                    -1.803125980760E-001                     7.087143780011E+002                    -4.472052169175E+002                    -4.516752766681E+003                     2.850112066985E+003
    1.2250                    -1.599381134406E+006                     8.978820291439E-010                     8.915595057344E+006                     3.451035057722E-008                     3.307938326793E+007                    -4.005129561335E-008                     3.453637392957E-001                    -9.515721847619E-001                    -7.582433918959E-001                    -1.711076693369E-001                     6.863408235107E+002                    -4.330873005895E+002                    -4.587003311031E+003                     2.894440799263E+003
    1.2500                    -1.641948904217E+006                     7.881607692883E-010                     8.913581204508E+006                     3.185969310593E-008                     3.387240484408E+007                    -3.803381221079E-008                     3.267845213413E-001                    -9.567810893059E-001                    -7.623940110207E-001                    -1.619027405977E-001                     6.643261136971E+002                    -4.191958185155E+002                    -4.657253855380E+003                     2.938769531542E+003
    1.2750                    -1.681184787911E+006                     8.893710420899E-010                     8.911551660343E+006                     2.103762070105E-008                     3.459474438687E+007                    -4.004262199597E-008                     3.074006280388E-001                    -9.596340748282E-001                    -7.646673598067E-001                    -1.522991510426E-001                     6.394564209282E+002                    -4.035028162362E+002                    -4.716036683379E+003                     2.975862030526E+003
    1.3000                    -1.720266049615E+006                     9.592478721066E-010                     8.909536165690E+006                     2.920990299637E-008                     3.531509235580E+007                    -3.859065844658E-008                     2.880167347363E-001                    -9.624870603504E-001                    -7.669407085927E-001                    -1.426955614874E-001                     6.150611614899E+002                    -3.881091857025E+002                    -4.774819511379E+003                     3.012954529511E+003
    1.3250                    -1.759193694285E+006                     9.961649560797E-010                     8.907534014726E+006                     3.253883734677E-008                     3.603346605083E+007                    -3.799911774127E-008                     2.686327490041E-001                    -9.653400594768E-001                    -7.692140682189E-001                    -1.330919261387E-001                     5.911402224497E+002                    -3.730148556530E+002                    -4.833602619677E+003                     3.050047205367E+003
    1.3500                    -1.797967983992E+006                     7.341132909899E-010                     8.905544722350E+006                     2.903643064878E-008                     3.674987172282E+007                    -4.004435671945E-008                     2.492488557015E-001                    -9.681930449991E-001                    -7.714874170049E-001                    -1.234883365835E-001                     5.676938319347E+002                    -3.582199700380E+002                    -4.892385447677E+003                     3.087139704352E+003
    1.3750                    -1.836589949102E+006                     7.996533123167E-010                     8.903567968368E+006                     3.749580967938E-008                     3.746433823717E+007                    -3.990904828832E-008                     2.298649623990E-001                    -9.710460305214E-001                    -7.737607657909E-001                    -1.138847470284E-001                     5.447218747501E+002                    -3.437244561687E+002                    -4.951168275676E+003                     3.124232203337E+003
    1.4000                    -1.875060133908E+006                     8.788542810167E-010                     8.901603197509E+006                     3.824347549752E-008                     3.817687429747E+007                    -3.662521674830E-008                     2.104810690965E-001                    -9.738990160437E-001                    -7.760341145770E-001                    -1.042811574732E-001                     5.222243508961E+002                    -3.295283140449E+002                    -5.009951103676E+003                     3.161324702322E+003
    1.4250                    -1.913379453031E+006                     7.583452095450E-010                     8.899650029461E+006                     2.625219946983E-008                     3.888750512456E+007                    -3.656965138696E-008                     1.910971757940E-001                    -9.767520015660E-001                    -7.783074633630E-001                    -9.467756791801E-002                     5.002012603726E+002                    -3.156315436668E+002                    -5.068733931675E+003                     3.198417201307E+003
    1.4500                    -1.951548862642E+006                     8.501229234459E-010                     8.897707924038E+006                     3.807780940557E-008                     3.959625058782E+007                    -3.806330250988E-008                     1.717131900617E-001                    -9.796050006923E-001                    -7.805808229892E-001                    -8.507393256932E-002                     4.786525015586E+002                    -3.020340809105E+002                    -5.127517039974E+003                     3.235509877163E+003
    1.4750                    -1.989568799128E+006                     9.841303119651E-010                     8.895776319309E+006                     2.997144660233E-008                     4.030311954644E+007                    -3.783778845801E-008                     1.523292967592E-001                    -9.824579862146E-001                    -7.828541717752E-001                    -7.547034301415E-002                     4.575782799584E+002                    -2.887360554512E+002                    -5.186299867973E+003                     3.272602376148E+003
    1.5000                    -2.027440542388E+006                     1.030534164947E-009                     8.893854743579E+006                     3.101575013487E-008                     4.100814322123E+007                    -3.832177630780E-008                     1.329454034567E-001                    -9.853109717369E-001                    -7.851275205612E-001                    -6.586675345898E-002                     4.369784916887E+002                    -2.757374017374E+002                    -5.245082695973E+003                     3.309694875132E+003
    1.5250                    -2.060783043708E+006                     8.576581285447E-010                     8.891964307060E+006                     3.948467014458E-008                     4.162116528598E+007                    -4.029762634694E-008                     1.132341811287E-001                    -9.857377942306E-001                    -7.854676303004E-001                    -5.610097982004E-002                     4.147539832593E+002                    -2.617135348291E+002                    -5.290950420601E+003                     3.338637826452E+003
    1.5500                    -2.093937237133E+006                     7.535747199860E-010                     8.890082557228E+006                     4.232527983650E-008                     4.223172000257E+007                    -3.805289416903E-008                     9.352295880078E-002                    -9.861646167244E-001                    -7.858077400396E-001                    -4.633520618111E-002                     3.931094842721E+002                    -2.480556591529E+002                    -5.336818145229E+003                     3.367580777771E+003
    1.5750                    -2.126904328458E+006                     8.289267709738E-010                     8.888208741422E+006                     2.492253392550E-008                     4.283982795432E+007                    -4.016405263929E-008                     7.381164248230E-002                    -9.865914412533E-001                    -7.861478514006E-001                    -3.656938597530E-002                     3.720448956664E+002                    -2.347637122007E+002                    -5.382686088572E+003                     3.396523867102E+003
    1.6000                    -2.159685234133E+006                     9.508995153784E-010                     8.886342147306E+006                     3.120049818506E-008                     4.344550621785E+007                    -4.006864284811E-008                     5.410042015434E-002                    -9.870182637470E-001                    -7.864879611398E-001                    -2.680361233637E-002                     3.515604183292E+002                    -2.218378207339E+002                    -5.428553813201E+003                     3.425466818421E+003
    1.6250                    -2.192281548173E+006                     6.197841719013E-010                     8.884482066629E+006                     3.694156552880E-008                     4.404878701268E+007                    -3.835994022428E-008                     3.438919782639E-002                    -9.874450862408E-001                    -7.868280708790E-001                    -1.703783869743E-002                     3.316559504341E+002                    -2.092779204991E+002                    -5.474421537829E+003                     3.454409769741E+003
    1.6500                    -2.224694556200E+006                     5.700735022929E-010                     8.882627628026E+006                     4.668637465510E-008                     4.464969020614E+007                    -3.611694276984E-008                     1.467797549843E-002                    -9.878719087345E-001                    -7.871681806182E-001                    -7.272065058501E-003                     3.123314919813E+002                    -1.970840114964E+002                    -5.520289262457E+003                     3.483352721060E+003
    1.6750                    -2.256926005801E+006                     8.334262099896E-010                     8.880778098433E+006                     2.894795975150E-008                     4.524825168024E+007                    -3.969047313035E-008                    -5.033246829527E-003                    -9.882987312282E-001                    -7.875082903574E-001                     2.493708580431E-003                     2.935870429705E+002                    -1.852560937258E+002                    -5.566156987086E+003                     3.512295672380E+003
    1.7000                    -2.288977506737E+006                     6.202178527703E-010                     8.878932423616E+006                     1.967586277241E-008                     4.584449317141E+007                    -3.980149543281E-008                    -2.474456314800E-002                    -9.887255557572E-001                    -7.878484017183E-001                     1.225952878625E-002                     2.754225181699E+002                    -1.737941134051E+002                    -5.612024930429E+003                     3.541238761710E+003
    1.7250                    -2.320850701287E+006                     7.510268448807E-010                     8.877089760731E+006                     3.250414287725E-008                     4.643844532983E+007                    -4.054737231737E-008                    -4.445578547596E-002                    -9.891523782509E-001                    -7.881885114575E-001                     2.202530242518E-002                     2.578380908092E+002                    -1.626981798439E+002                    -5.657892655057E+003                     3.570181713030E+003
    1.7500                    -2.352547559402E+006                     8.411782555229E-010                     8.875249065097E+006                     3.430912265401E-008                     4.703013860187E+007                    -3.634066788813E-008                    -6.416701525450E-002                    -9.895792007446E-001                    -7.885286211967E-001                     3.179107978940E-002                     2.408336664854E+002                    -1.519682334728E+002                    -5.703760396267E+003                     3.599124674813E+003
    1.7750                    -2.378686050973E+006                     8.821068875342E-010                     8.873472952012E+006                     3.093508549323E-008                     4.751132161324E+007                    -3.824718319834E-008                    -8.372022581985E-002                    -9.875693519209E-001                    -7.869271055236E-001                     4.147855535151E-002                     2.232658599330E+002                    -1.408827877927E+002                    -5.735583446128E+003                     3.619205308645E+003
    1.8000                    -2.404614134184E+006                     9.665120266622E-010                     8.871695505219E+006                     3.752269789326E-008                     4.798967310157E+007                    -3.820034566449E-008                    -1.032734363852E-001                    -9.855595030972E-001                    -7.853255898505E-001                     5.116603091362E-002                     2.063632953086E+002                    -1.302171158184E+002                    -5.767406495989E+003                     3.639285942477E+003
    1.8250                    -2.430334172762E+006                     7.247349421979E-010                     8.869915455024E+006                     3.683401267329E-008                     4.846522516560E+007                    -3.773023560250E-008                    -1.228267401876E-001                    -9.835496446898E-001                    -7.837240665407E-001                     6.085355266926E-002                     1.901258967727E+002                    -1.199711696942E+002                    -5.799229697595E+003                     3.659366672061E+003
    1.8500                    -2.455848650346E+006                     7.815471360362E-010                     8.868131730815E+006                     3.256225611370E-008                     4.893801895134E+007                    -4.055783486834E-008                    -1.423799507530E-001                    -9.815397958662E-001                    -7.821225508675E-001                     7.054102823137E-002                     1.745538191767E+002                    -1.101450471329E+002                    -5.831052747456E+003                     3.679447305893E+003
    1.8750                    -2.481160224904E+006                     6.907994141991E-010                     8.866342923759E+006                     2.906939039482E-008                     4.940808830391E+007                    -3.795401493090E-008                    -1.619331613183E-001                    -9.795299470425E-001                    -7.805210351944E-001                     8.022850379348E-002                     1.596469835086E+002                    -1.007386982773E+002                    -5.862875797317E+003                     3.699527939725E+003
    1.9000                    -2.506272033948E+006                     9.168013570537E-010                     8.864547816202E+006                     3.984896207454E-008                     4.987548279604E+007                    -3.766437032052E-008                    -1.814863718837E-001                    -9.775200982188E-001                    -7.789195195213E-001                     8.991597935559E-002                     1.454053897687E+002                    -9.175212312734E+001                    -5.894698847179E+003                     3.719608573557E+003
    1.9250                    -2.531186968725E+006                     5.747355716346E-010                     8.862744859979E+006                     2.577254842873E-008                     5.034023643527E+007                    -3.806503723336E-008                    -2.010395824490E-001                    -9.755102493951E-001                    -7.773180038481E-001                     9.960345491770E-002                     1.318290379568E+002                    -8.318532168314E+001                    -5.926521897040E+003                     3.739689207389E+003
    1.9500                    -2.555908703857E+006                     7.774271677807E-010                     8.860932780951E+006                     3.206699256131E-008                     5.080240678179E+007                    -3.601632880823E-008                    -2.205928862514E-001                    -9.735003909877E-001                    -7.757164805383E-001                     1.092909766733E-001                     1.189178680940E+002                    -7.503825609738E+001                    -5.958345098645E+003                     3.759769936973E+003
    1.9750                    -2.580440320528E+006                     8.463282158422E-010                     8.859110002951E+006                     3.109728213824E-008                     5.126202968861E+007                    -3.847963614412E-008                    -2.401460968168E-001                    -9.714905421640E-001                    -7.741149648652E-001                     1.189784522354E-001                     1.066720033103E+002                    -6.731100406623E+001                    -5.990168148507E+003                     3.779850570805E+003
    2.0000                    -2.604785863964E+006                     9.407622250657E-010                     8.857275120300E+006                     2.846310453997E-008                     5.171916455425E+007                    -3.805462889250E-008                    -2.596993148327E-001                    -9.694806933403E-001                    -7.725134491920E-001                     1.286659240723E-001                     9.509137642987E+001                    -6.000352320105E+001                    -6.021991181786E+003                     3.799931194174E+003
    2.0250                    -2.622769893420E+006                     7.656635742093E-010                     8.855526957247E+006                     3.976829743291E-008                     5.205100114212E+007                    -3.869300713166E-008                    -2.786131626655E-001                    -9.650836538428E-001                    -7.690097436764E-001                     1.380366518929E-001                     8.373592085969E+001                    -5.283812748016E+001                    -6.038986366698E+003                     3.810655310392E+003
    2.0500                    -2.640543814209E+006                     6.060148043108E-010                     8.853762046346E+006                     3.531612963181E-008                     5.237988163644E+007                    -3.874504883594E-008                    -2.975268301224E-001                    -9.606866562787E-001                    -7.655060715746E-001                     1.474072903477E-001                     7.310235808509E+001                    -4.612825267752E+001                    -6.055981389532E+003                     3.821379324338E+003
    2.0750                    -2.658112176665E+006                     9.761072158887E-010                     8.851978684506E+006                     3.017440924902E-008                     5.270586476157E+007                    -3.820901928187E-008                    -3.164406779552E-001                    -9.562896167812E-001                    -7.620023660589E-001                     1.567780181683E-001                     6.319048528581E+001                    -3.987377081169E+001                    -6.072976574444E+003                     3.832103440556E+003
    2.1000                    -2.675479394531E+006                     1.118571381353E-009                     8.850175389533E+006                     3.237837542525E-008                     5.302900984020E+007                    -4.024038047223E-008                    -3.353543454122E-001                    -9.518926192170E-001                    -7.584986939571E-001                     1.661486566231E-001                     5.400049151508E+001                    -3.407480117698E+001                    -6.089971597278E+003                     3.842827454501E+003
    2.1250                    -2.692650441277E+006                     1.022402648654E-009                     8.848350404346E+006                     1.862201826075E-008                     5.334938030682E+007                    -4.004782616640E-008                    -3.542681932449E-001                    -9.474955797195E-001                    -7.549949884415E-001                     1.755193844438E-001                     4.553220148669E+001                    -2.873123316620E+001                    -6.106966782190E+003                     3.853551570719E+003
    2.1500                    -2.709630332542E+006                     9.293238921460E-010                     8.846502282248E+006                     3.209301341345E-008                     5.366704579200E+007                    -3.864790432129E-008                    -3.731820410777E-001                    -9.430985402221E-001                    -7.514912829258E-001                     1.848901122644E-001                     3.778570628553E+001                    -2.384312425474E+001                    -6.123961967102E+003                     3.864275686937E+003
    2.1750                    -2.726423936573E+006                     1.236749418154E-009                     8.844629371300E+006                     3.622425737149E-008                     5.398206714730E+007                    -3.798177050651E-008                    -3.920957085347E-001                    -9.387015426579E-001                    -7.479876108240E-001                     1.942607507192E-001                     3.076106946235E+001                    -1.941051454371E+001                    -6.140956989936E+003                     3.874999700883E+003
    2.2000                    -2.743037108933E+006                     1.041972497867E-009                     8.842730181307E+006                     4.120811791797E-008                     5.429452739069E+007                    -3.758451883051E-008                    -4.110095563674E-001                    -9.343045031604E-001                    -7.444839053084E-001                     2.036314785398E-001                     2.445815703208E+001                    -1.543331948730E+001                    -6.157952174848E+003                     3.885723817101E+003
    2.2250                    -2.759474825792E+006                     7.215907558977E-010                     8.840803090816E+006                     3.173826246261E-008                     5.460448762585E+007                    -3.838075690599E-008                    -4.299232238244E-001                    -9.299075055962E-001                    -7.409802332065E-001                     2.130021169946E-001                     1.887708921277E+001                    -1.191161494420E+001                    -6.174947197682E+003                     3.896447831046E+003
    2.2500                    -2.775743256618E+006                     9.318717672513E-010                     8.838846778230E+006                     3.086656391593E-008                     5.491203862981E+007                    -4.025252353657E-008                    -4.488370716572E-001                    -9.255104660988E-001                    -7.374765276909E-001                     2.223728448153E-001                     1.401775955339E+001                    -8.845333742846E+000                    -6.191942382593E+003                     3.907171947264E+003
    2.2750                    -2.785109929230E+006                     7.928228386300E-010                     8.836998838128E+006                     2.098124218808E-008                     5.508394740939E+007                    -3.827667349743E-008                    -4.666457408518E-001                    -9.188344879591E-001                    -7.321569061008E-001                     2.311960005569E-001                     9.822349636116E+000                    -6.197991935832E+000                    -6.193690848685E+003                     3.908275245267E+003
    2.3000                    -2.794294306087E+006                     8.196568423990E-010                     8.835117891598E+006                     2.237162305407E-008                     5.525312966253E+007                    -3.843626805722E-008                    -4.844542402103E-001                    -9.121585734862E-001                    -7.268373352425E-001                     2.400190721548E-001                     6.371088699705E+000                    -4.020214902354E+000                    -6.195439298102E+003                     3.909378532748E+003
    2.3250                    -2.803302211736E+006                     6.356135236196E-010                     8.833202440100E+006                     2.004622623453E-008                     5.541966424166E+007                    -3.835473605385E-008                    -5.022629094049E-001                    -9.054825953465E-001                    -7.215177136524E-001                     2.488422278964E-001                     3.663910916207E+000                    -2.311961104373E+000                    -6.197187764193E+003                     3.910481830750E+003
    2.3500                    -2.812139763090E+006                     6.616343757593E-010                     8.831251530173E+006                     2.842060381480E-008                     5.558364432843E+007                    -3.919087276927E-008                    -5.200714087635E-001                    -8.988066808737E-001                    -7.161981427940E-001                     2.576652994943E-001                     1.700867920741E+000                    -1.073263124121E+000                    -6.198936213610E+003                     3.911585118231E+003
    2.3750                    -2.820812929904E+006                     8.108748048019E-010                     8.829263833121E+006                     3.502729817306E-008                     5.574515475785E+007                    -3.985353713709E-008                    -5.378800779581E-001                    -8.921307027340E-001                    -7.108785212040E-001                     2.664884552360E-001                     4.819222710214E-001                    -3.040973351738E-001                    -6.200684679702E+003                     3.912688416234E+003
    2.4000                    -2.829327941683E+006                     6.750784826981E-010                     8.827238445278E+006                     2.725140019200E-008                     5.590429144487E+007                    -3.808758863855E-008                    -5.556887471527E-001                    -8.854547245943E-001                    -7.055588996139E-001                     2.753116109776E-001                     7.096236416242E-003                    -4.477789705316E-003                    -6.202433145793E+003                     3.913791714236E+003
    2.4250                    -2.837690647426E+006                     5.525636372072E-010                     8.825174312432E+006                     1.997076576332E-008                     5.606114119837E+007                    -3.683338356542E-008                    -5.734972465113E-001                    -8.787788101214E-001                    -7.002393287556E-001                     2.841346825755E-001                    -2.763837005605E-001                     1.744006282337E-001                    -6.204181595210E+003                     3.914895001717E+003
    2.4500                    -2.845907407654E+006                     1.010801685408E-009                     8.823070636495E+006                     2.710741814349E-008                     5.621580648821E+007                    -3.778140994504E-008                    -5.913059157059E-001                    -8.721028319817E-001                    -6.949197071655E-001                     2.929578383172E-001                    -1.289789799734E+000                     8.138690917983E-001                    -6.205930061302E+003                     3.915998299720E+003
    2.4750                    -2.853984195014E+006                     6.859747145316E-010                     8.820926715745E+006                     3.724340741362E-008                     5.636838241799E+007                    -3.960894112698E-008                    -6.091144150644E-001                    -8.654269175089E-001                    -6.896001363071E-001                     3.017809099150E-001                    -3.047295204824E+000                     1.922870983553E+000                    -6.207678510718E+003                     3.917101587201E+003
    2.5000                    -2.861927021241E+006                     9.473216482092E-010                     8.818741710513E+006                     2.731558496061E-008                     5.651896547756E+007                    -3.762788691741E-008                    -6.269230842590E-001                    -8.587509393692E-001                    -6.842805147171E-001                     3.106040656567E-001                    -5.548933437776E+000                     3.501427456151E+000                    -6.209426976810E+003                     3.918204885203E+003
    2.5250                    -2.862803811312E+006                     7.792161013653E-010                     8.816701972903E+006                     4.149521465324E-008                     5.652945969472E+007                    -4.020134919402E-008                    -6.431880558106E-001                    -8.499604307061E-001                    -6.772759527987E-001                     3.186624148925E-001                    -8.760321562011E+000                     5.527842563962E+000                    -6.195885686754E+003                     3.909660208046E+003
    2.5500                    -2.863764792064E+006                     8.686627805954E-010                     8.814620343931E+006                     3.743943116641E-008                     5.654002057480E+007                    -3.739977078032E-008                    -6.594528722479E-001                    -8.411700058755E-001                    -6.702714576808E-001                     3.267206872781E-001                    -1.270170322159E+001                     8.014890230469E+000                    -6.182344525837E+003                     3.901115612376E+003
    2.5750                    -2.864816130374E+006                     7.339506606641E-010                     8.812496531768E+006                     3.473846671431E-008                     5.655075628226E+007                    -3.990904828832E-008                    -6.757178437994E-001                    -8.323794972125E-001                    -6.632668957624E-001                     3.347790365139E-001                    -1.737315359284E+001                     1.096261789261E+001                    -6.168803235781E+003                     3.892570935219E+003
    2.6000                    -2.865963555442E+006                     7.399137726127E-010                     8.810330187128E+006                     2.287642758558E-008                     5.656176696550E+007                    -4.058298835874E-008                    -6.919826602367E-001                    -8.235890723819E-001                    -6.562624006444E-001                     3.428373088996E-001                    -2.277458357524E+001                     1.437096932716E+001                    -6.155262074864E+003                     3.884026339550E+003
    2.6250                    -2.867212921718E+006                     7.837155403811E-010                     8.808121102661E+006                     2.772931650963E-008                     5.657315913251E+007                    -3.868173142907E-008                    -7.082476317883E-001                    -8.147985637188E-001                    -6.492578387260E-001                     3.508956581354E-001                    -2.890609619350E+001                     1.824000954364E+001                    -6.141720784808E+003                     3.875481662392E+003
    2.6500                    -2.868570222749E+006                     6.751869029153E-010                     8.805869347065E+006                     3.032012602100E-008                     5.658504390819E+007                    -3.762615219394E-008                    -7.245126033398E-001                    -8.060080550557E-001                    -6.422532768077E-001                     3.589540073712E-001                    -3.576764341632E+001                     2.256970823386E+001                    -6.128179494751E+003                     3.866936985234E+003
    2.6750                    -2.870040881527E+006                     4.932035682637E-010                     8.803574730761E+006                     3.410616000732E-008                     5.659752153686E+007                    -3.839539363532E-008                    -7.407774197771E-001                    -7.972176302251E-001                    -6.352487816897E-001                     3.670122797569E-001                    -4.335914936400E+001                     2.736001751704E+001                    -6.114638333835E+003                     3.858392389565E+003
    2.7000                    -2.871630858152E+006                     9.633136302534E-010                     8.801237452865E+006                     2.926454678587E-008                     5.661070524706E+007                    -4.033579026341E-008                    -7.570423913286E-001                    -7.884271215621E-001                    -6.282442197713E-001                     3.750706289927E-001                    -5.168075883383E+001                     3.261102876159E+001                    -6.101097043778E+003                     3.849847712407E+003
    2.7250                    -2.873345658879E+006                     7.749877128926E-010                     8.798857737013E+006                     2.897658268886E-008                     5.662470236948E+007                    -3.972516759987E-008                    -7.733072077659E-001                    -7.796366967315E-001                    -6.212397246534E-001                     3.831289013784E-001                    -6.073231310433E+001                     3.832264181281E+001                    -6.087555882861E+003                     3.841303116738E+003
    2.7500                    -2.875190773626E+006                     7.601341431296E-010                     8.796435745084E+006                     3.860863478922E-008                     5.663961976942E+007                    -3.815437549237E-008                    -7.895721793175E-001                    -7.708461880684E-001                    -6.142351627350E-001                     3.911872506142E-001                    -7.051398482118E+001                     4.449496561170E+001                    -6.074014592805E+003                     3.832758439580E+003
    2.7750                    -2.869989192057E+006                     9.892802722844E-010                     8.794218969028E+006                     2.951608168988E-008                     5.651407396862E+007                    -3.773197032597E-008                    -8.038929353073E-001                    -7.601576039751E-001                    -6.057181450673E-001                     3.982823582938E-001                    -8.065386198731E+001                     5.089332030627E+001                    -6.045516989423E+003                     3.814776192715E+003
    2.8000                    -2.864906875715E+006                     6.428505731210E-010                     8.791962389793E+006                     3.205311477350E-008                     5.638928286411E+007                    -3.963235989390E-008                    -8.182135547243E-001                    -7.494691218158E-001                    -5.972012086239E-001                     4.053773983096E-001                    -9.147455146345E+001                     5.772127375915E+001                    -6.017019657815E+003                     3.796794117342E+003
    2.8250                    -2.859949336739E+006                     7.527886734110E-010                     8.789666655092E+006                     2.751594552208E-008                     5.626535746884E+007                    -3.834085826604E-008                    -8.325343107142E-001                    -7.387805377225E-001                    -5.886841909561E-001                     4.124725059892E-001                    -1.029762596391E+002                     6.497895620395E+001                    -5.988522054433E+003                     3.778811870477E+003
    2.8500                    -2.855122184555E+006                     8.720509123844E-010                     8.787332490459E+006                     3.224913852629E-008                     5.614241056148E+007                    -3.952480703839E-008                    -8.468549301311E-001                    -7.280920555631E-001                    -5.801672545127E-001                     4.195675460049E-001                    -1.151587671373E+002                     7.266622921189E+001                    -5.960024722824E+003                     3.760829795103E+003
    2.8750                    -2.850430411312E+006                     8.044238018756E-010                     8.784960369469E+006                     3.277475973951E-008                     5.602054442344E+007                    -3.926720060221E-008                    -8.611756861210E-001                    -7.174034714699E-001                    -5.716502368450E-001                     4.266626536846E-001                    -1.280223063224E+002                     8.078323940691E+001                    -5.931527119442E+003                     3.742847548238E+003
    2.9000                    -2.845879754878E+006                     1.026739457344E-009                     8.782551376495E+006                     2.372297264186E-008                     5.589987603229E+007                    -3.740844439770E-008                    -8.754964421108E-001                    -7.067148873766E-001                    -5.631332191773E-001                     4.337577613643E-001                    -1.415667642591E+002                     8.932991552584E+001                    -5.903029516060E+003                     3.724865301373E+003
    2.9250                    -2.841475422869E+006                     7.113992554764E-010                     8.780106310281E+006                     2.882652910818E-008                     5.578051275458E+007                    -3.987782326575E-008                    -8.898170615278E-001                    -6.960264052173E-001                    -5.546162827339E-001                     4.408528013800E-001                    -1.557920020373E+002                     9.830616991516E+001                    -5.874532184452E+003                     3.706883225999E+003
    2.9500                    -2.837222723980E+006                     5.945493663367E-010                     8.777626122229E+006                     2.772324497746E-008                     5.566256144026E+007                    -3.758798827747E-008                    -9.041378175177E-001                    -6.853378211240E-001                    -5.460992650662E-001                     4.479479090597E-001                    -1.706982909834E+002                     1.077121737843E+002                    -5.846034581070E+003                     3.688900979134E+003
    2.9750                    -2.833127142073E+006                     7.628175435065E-010                     8.775112001619E+006                     2.287902967080E-008                     5.554613408988E+007                    -3.802687331689E-008                    -9.184584369347E-001                    -6.746493389646E-001                    -5.375823286228E-001                     4.550429490754E-001                    -1.862853467837E+002                     1.175477477287E+002                    -5.817537249461E+003                     3.670918903760E+003
    3.0000                    -2.829194005864E+006                     6.315748705271E-010                     8.772565147438E+006                     1.872610166931E-008                     5.543133763639E+007                    -3.907204421116E-008                    -9.327791929245E-001                    -6.639607548714E-001                    -5.290653109550E-001                     4.621380567551E-001                    -2.025534667394E+002                     1.278130793481E+002                    -5.789039646079E+003                     3.652936656895E+003
    3.0250                    -2.818232779840E+006                     7.718435265924E-010                     8.770304433738E+006                     2.258065723293E-008                     5.517775108072E+007                    -3.785253360755E-008                    -9.448031645734E-001                    -6.516372568190E-001                    -5.192455632412E-001                     4.680952299391E-001                    -2.184653640776E+002                     1.378536312567E+002                    -5.746287548755E+003                     3.625959694735E+003
    3.0500                    -2.807417690509E+006                     5.483623537889E-010                     8.768016456530E+006                     3.678283833075E-008                     5.492559658277E+007                    -3.738686877447E-008                    -9.568270215532E-001                    -6.393138762921E-001                    -5.094259091753E-001                     4.740523463113E-001                    -2.349786868704E+002                     1.482736880960E+002                    -5.703535859144E+003                     3.598982989846E+003
    3.0750                    -2.796756781221E+006                     9.787364061570E-010                     8.765703912017E+006                     2.680210681172E-008                     5.467498226568E+007                    -3.832958256345E-008                    -9.688509932021E-001                    -6.269903782397E-001                    -4.996061614614E-001                     4.800095194953E-001                    -2.520937500863E+002                     1.590734486139E+002                    -5.660783761820E+003                     3.572006027686E+003
    3.1000                    -2.786259977837E+006                     1.127976835200E-009                     8.763370238497E+006                     2.598765413975E-008                     5.442602512446E+007                    -3.856290287096E-008                    -9.808748501819E-001                    -6.146669977129E-001                    -4.897865073956E-001                     4.859666358675E-001                    -2.698102272825E+002                     1.702527068221E+002                    -5.618032072209E+003                     3.545029322797E+003
    3.1250                    -2.775932099859E+006                     9.059593353289E-010                     8.761016795021E+006                     4.323254021443E-008                     5.417882328926E+007                    -3.913579529891E-008                    -9.928988218307E-001                    -6.023434996605E-001                    -4.799667596817E-001                     4.919238090515E-001                    -2.881284563761E+002                     1.818116759494E+002                    -5.575279974885E+003                     3.518052360637E+003
    3.1500                    -2.765778833411E+006                     6.049848122469E-010                     8.758645385096E+006                     3.170443535483E-008                     5.393348328872E+007                    -3.620975047580E-008                    -1.004922793480E+000                    -5.900200016081E-001                    -4.701470119678E-001                     4.978809822355E-001                    -3.070482712771E+002                     1.937502511913E+002                    -5.532527877560E+003                     3.491075398477E+003
    3.1750                    -2.755806187577E+006                     7.210486548115E-010                     8.756257983085E+006                     3.600134540482E-008                     5.369011011085E+007                    -3.989473681965E-008                    -1.016946650459E+000                    -5.776966210813E-001                    -4.603273579020E-001                     5.038380986077E-001                    -3.265694829470E+002                     2.060683132631E+002                    -5.489776187950E+003                     3.464098693588E+003
    3.2000                    -2.746020357125E+006                     6.874112824101E-010                     8.753856728781E+006                     3.008160154305E-008                     5.344880173744E+007                    -3.978631660240E-008                    -1.028970622108E+000                    -5.653731230288E-001                    -4.505076101881E-001                     5.097952717917E-001                    -3.466924637256E+002                     2.187660971143E+002                    -5.447024090625E+003                     3.437121731428E+003
    3.2250                    -2.736427521987E+006                     7.757737594677E-010                     8.751443679667E+006                     1.883018507787E-008                     5.320966591309E+007                    -3.943156565156E-008                    -1.040994479088E+000                    -5.530497425020E-001                    -4.406879561222E-001                     5.157523881639E-001                    -3.674168297990E+002                     2.318433605550E+002                    -5.404272401015E+003                     3.410145026539E+003
    3.2500                    -2.727033680755E+006                     8.349711980854E-010                     8.749020894716E+006                     2.425726747246E-008                     5.297280507662E+007                    -3.858849004224E-008                    -1.053018450737E+000                    -5.407262444496E-001                    -4.308682084084E-001                     5.217095613480E-001                    -3.887429764554E+002                     2.453003530156E+002                    -5.361520303691E+003                     3.383168064379E+003
    3.2750                    -2.710746319436E+006                     7.104776836298E-010                     8.746980613878E+006                     3.449126861899E-008                     5.260165421809E+007                    -3.740063814206E-008                    -1.062449503159E+000                    -5.270712987236E-001                    -4.199874939702E-001                     5.263820945645E-001                    -4.087053419682E+002                     2.578967871736E+002                    -5.305566099596E+003                     3.347860452799E+003
    3.3000                    -2.694636976244E+006                     8.739753712406E-010                     8.744936853564E+006                     6.883144498815E-009                     5.223255521299E+007                    -4.058559044395E-008                    -1.071880465639E+000                    -5.134164832209E-001                    -4.091068832983E-001                     5.310545832205E-001                    -4.291673022007E+002                     2.708084701427E+002                    -5.249612429120E+003                     3.312553177938E+003
    3.3250                    -2.678709653634E+006                     8.747072077070E-010                     8.742890203665E+006                     4.030779643394E-008                     5.186562710915E+007                    -4.128034719608E-008                    -1.081311518061E+000                    -4.997615374949E-001                    -3.982261688601E-001                     5.357271164370E-001                    -4.501292474361E+002                     2.840356481949E+002                    -5.193658225025E+003                     3.277245566358E+003
    3.3500                    -2.662974289676E+006                     7.310910774341E-010                     8.740840894990E+006                     2.541779747789E-008                     5.150124981266E+007                    -3.913015744761E-008                    -1.090742480541E+000                    -4.861067219921E-001                    -3.873455581881E-001                     5.403996050929E-001                    -4.715907778586E+002                     2.975780690430E+002                    -5.137704554549E+003                     3.241938291496E+003
    3.3750                    -2.647449328668E+006                     9.014192387316E-010                     8.738789608450E+006                     2.114864300351E-008                     5.114014868293E+007                    -3.861451089437E-008                    -1.100173532963E+000                    -4.724517762661E-001                    -3.764648437500E-001                     5.450721383095E-001                    -4.935523028167E+002                     3.114359909895E+002                    -5.081750350455E+003                     3.206630679916E+003
    3.4000                    -2.632138631497E+006                     9.391088167526E-010                     8.736737347449E+006                     2.042179386708E-008                     5.078246039252E+007                    -3.683598565063E-008                    -1.109604585384E+000                    -4.587968305401E-001                    -3.655841293119E-001                     5.497446715260E-001                    -5.160136200192E+002                     3.256092863869E+002                    -5.025796146360E+003                     3.171323068336E+003
    3.4250                    -2.617044753013E+006                     8.062940506232E-010                     8.734685190869E+006                     2.302908325147E-008                     5.042826669429E+007                    -4.038045939292E-008                    -1.119035547865E+000                    -4.451420150373E-001                    -3.547035186399E-001                     5.544171601820E-001                    -5.389745081098E+002                     3.400978155573E+002                    -4.969842475884E+003                     3.136015793474E+003
[...]
   11.6250                    -2.192281448084E+006                     9.531221298320E-010                     8.884482061733E+006                     2.921597452854E-008                     4.404878517126E+007                    -3.932444647692E-008                     3.438929468393E-002                    -9.874450862408E-001                    -7.868280708790E-001                    -1.703787222505E-002                     3.316560481514E+002                    -2.092779821596E+002                    -5.474421388594E+003                     3.454409675572E+003
   11.6500                    -2.224693995617E+006                     7.542252412895E-010                     8.882627651661E+006                     2.781518532169E-008                     4.464967983426E+007                    -4.026472081101E-008                     1.467835283745E-002                    -9.878719026287E-001                    -7.871681757529E-001                    -7.272237541713E-003                     3.123318576405E+002                    -1.970842422308E+002                    -5.520288460395E+003                     3.483352214952E+003
   11.6750                    -2.256926215970E+006                     9.110550855396E-010                     8.880778080009E+006                     3.584435293025E-008                     4.524825563314E+007                    -3.938169235163E-008                    -5.033340933267E-003                    -9.882987352987E-001                    -7.875082936009E-001                     2.493769676704E-003                     2.935869560844E+002                    -1.852560388999E+002                    -5.566157281912E+003                     3.512295858418E+003
   11.7000                    -2.288977107413E+006                     9.084530003256E-010                     8.878932442456E+006                     3.207306409347E-008                     4.584448579991E+007                    -3.679868909590E-008                    -2.474428277975E-002                    -9.887255516867E-001                    -7.878483984748E-001                     1.225940436004E-002                     2.754227735727E+002                    -1.737942745666E+002                    -5.612024353713E+003                     3.541238397798E+003
   11.7250                    -2.320851063286E+006                     9.159882054244E-010                     8.877089737710E+006                     3.392748348929E-008                     4.643845216158E+007                    -3.853167784840E-008                    -4.445597655047E-002                    -9.891523843567E-001                    -7.881885163229E-001                     2.202541157845E-002                     2.578379242673E+002                    -1.626980747544E+002                    -5.657893175231E+003                     3.570182041264E+003
   11.7500                    -2.352547468488E+006                     6.848905123591E-010                     8.875249070462E+006                     2.887423400377E-008                     4.703013699866E+007                    -3.894622254905E-008                    -6.416691839695E-002                    -9.895792007446E-001                    -7.885286211967E-001                     3.179104626179E-002                     2.408337497549E+002                    -1.519682860167E+002                    -5.703760247032E+003                     3.599124580644E+003
   11.7750                    -2.378685611827E+006                     8.266499464116E-010                     8.873472982805E+006                     1.961601481248E-008                     4.751131362481E+007                    -3.880055998717E-008                    -8.371987160251E-002                    -9.875693806721E-001                    -7.869271343939E-001                     4.147839516406E-002                     2.232661681579E+002                    -1.408829822855E+002                    -5.735582936765E+003                     3.619204987232E+003
   11.8000                    -2.404614337598E+006                     9.592478721066E-010                     8.871695493650E+006                     3.930859571177E-008                     4.798967699895E+007                    -3.856984176487E-008                    -1.032735707054E-001                    -9.855594839298E-001                    -7.853255864982E-001                     5.116611361501E-002                     2.063631787898E+002                    -1.302170422940E+002                    -5.767406840456E+003                     3.639286159838E+003
   11.8250                    -2.430333909194E+006                     9.154461043381E-010                     8.869915477417E+006                     3.670911258302E-008                     4.846522046303E+007                    -3.857678065877E-008                    -1.228265239110E-001                    -9.835496638573E-001                    -7.837240996953E-001                     6.085346251729E-002                     1.901260712169E+002                    -1.199712797701E+002                    -5.799229530189E+003                     3.659366566426E+003
   11.8500                    -2.455849017918E+006                     9.759987956715E-010                     8.868131710669E+006                     3.095416745147E-008                     4.893802598159E+007                    -3.827840822090E-008                    -1.423802230139E-001                    -9.815397671150E-001                    -7.821225517996E-001                     7.054118096823E-002                     1.745536066272E+002                    -1.101449130123E+002                    -5.831053433881E+003                     3.679447739033E+003
   11.8750                    -2.481160251979E+006                     8.535923703978E-010                     8.866342929156E+006                     3.924267621969E-008                     4.940808905395E+007                    -3.867219044995E-008                    -1.619331762195E-001                    -9.795299470425E-001                    -7.805210649967E-001                     8.022852987051E-002                     1.596469730784E+002                    -1.007386916957E+002                    -5.862876123614E+003                     3.699528145621E+003
   11.9000                    -2.506271725974E+006                     1.085286374658E-009                     8.864547847311E+006                     2.497457562978E-008                     4.987547733920E+007                    -4.027328600817E-008                    -1.814861294250E-001                    -9.775201269699E-001                    -7.789195781938E-001                     8.991587877279E-002                     1.454055638532E+002                    -9.175223297627E+001                    -5.894698813347E+003                     3.719608552209E+003
   11.9250                    -2.531187277744E+006                     8.324504280344E-010                     8.862744848086E+006                     2.914658558950E-008                     5.034024252243E+007                    -3.767472445126E-008                    -2.010398285279E-001                    -9.755102302277E-001                    -7.773180302981E-001                     9.960359722373E-002                     1.318288737423E+002                    -8.318521806230E+001                    -5.926522717038E+003                     3.739689724816E+003
   11.9500                    -2.555908563586E+006                     7.828481786432E-010                     8.860932803567E+006                     4.445465290326E-008                     5.080240450753E+007                    -3.770421475036E-008                    -2.205927817335E-001                    -9.735004101551E-001                    -7.757165434953E-001                     1.092909461260E-001                     1.189179385412E+002                    -7.503830055018E+001                    -5.958345406772E+003                     3.759770131404E+003
   11.9750                    -2.580440786696E+006                     8.871484276363E-010                     8.859109982002E+006                     4.039539996947E-008                     5.126203881757E+007                    -3.888209199054E-008                    -2.401464808364E-001                    -9.714905134128E-001                    -7.741149955996E-001                     1.189786645770E-001                     1.066717732086E+002                    -6.731085886995E+001                    -5.990169310463E+003                     3.779851304010E+003
   12.0000                    -2.604786002639E+006                     8.618323069087E-010                     8.857275125621E+006                     3.257266445456E-008                     5.171916757957E+007                    -3.968179951297E-008                    -2.596994340420E-001                    -9.694806933403E-001                    -7.725135087967E-001                     1.286660134792E-001                     9.509131203155E+001                    -6.000348256512E+001                    -6.021992000196E+003                     3.799931710599E+003
   12.0250                    -2.622769690017E+006                     7.534120896602E-010                     8.855526993028E+006                     4.611044646108E-008                     5.205099785051E+007                    -3.880749888108E-008                    -2.786129270835E-001                    -9.650837377094E-001                    -7.690098760690E-001                     1.380365536276E-001                     8.373606711098E+001                    -5.283821976606E+001                    -6.038986863201E+003                     3.810655623690E+003
   12.0500                    -2.640544119232E+006                     1.117161918529E-009                     8.853762028663E+006                     2.595035758501E-008                     5.237988775171E+007                    -3.669634041081E-008                    -2.975271416285E-001                    -9.606866143454E-001                    -7.655061096864E-001                     1.474074512391E-001                     7.310219800663E+001                    -4.612815166656E+001                    -6.055982374518E+003                     3.821379945873E+003
   12.0750                    -2.658112145478E+006                     7.509184246635E-010                     8.851978697778E+006                     3.677676679859E-008                     5.270586464189E+007                    -3.790370795009E-008                    -3.164406346700E-001                    -9.562896587145E-001                    -7.620024769587E-001                     1.567779913874E-001                     6.319051599977E+001                    -3.987379019248E+001                    -6.072977237523E+003                     3.832103858964E+003
   12.1000                    -2.675479858160E+006                     7.535205098774E-010                     8.850175348034E+006                     1.368152580117E-008                     5.302901893478E+007                    -3.832351103128E-008                    -3.353548492150E-001                    -9.518925353505E-001                    -7.584987105761E-001                     1.661488889989E-001                     5.400026487753E+001                    -3.407465816662E+001                    -6.089972748840E+003                     3.842828181147E+003
   12.1250                    -2.692650574390E+006                     8.742464217837E-010                     8.848350394357E+006                     3.058987552151E-008                     5.334938324606E+007                    -3.875372245332E-008                    -3.542683422565E-001                    -9.474955797195E-001                    -7.549950778484E-001                     1.755194291472E-001                     4.553214578438E+001                    -2.873119801753E+001                    -6.106967611844E+003                     3.853552094239E+003
   12.1500                    -2.709630142420E+006                     7.128087183006E-010                     8.846502304641E+006                     2.860101505631E-008                     5.366704267868E+007                    -3.829055128524E-008                    -3.731818352981E-001                    -9.430986240886E-001                    -7.514914451208E-001                     1.848899692956E-001                     3.778579438124E+001                    -2.384317984394E+001                    -6.123962474849E+003                     3.864276007330E+003
   12.1750                    -2.726424226637E+006                     7.184465695975E-010                     8.844629337116E+006                     3.922793107014E-008                     5.398207303994E+007                    -3.789676905619E-008                    -3.920960498431E-001                    -9.387015007246E-001                    -7.479876787381E-001                     1.942608669071E-001                     3.076095646480E+001                    -1.941044324122E+001                    -6.140957986166E+003                     3.875000329513E+003
   12.2000                    -2.743037080935E+006                     8.514781761615E-010                     8.842730180231E+006                     3.156565747675E-008                     5.429452730357E+007                    -3.939036596901E-008                    -4.110095428846E-001                    -9.343045450937E-001                    -7.444840460105E-001                     2.036314070554E-001                     2.445816797537E+001                    -1.543332639262E+001                    -6.157952849170E+003                     3.885724242604E+003
   12.2250                    -2.759475266082E+006                     7.572610073725E-010                     8.840803031333E+006                     4.522573748833E-008                     5.460449637480E+007                    -3.775452173116E-008                    -4.299237574296E-001                    -9.299074217297E-001                    -7.409802796278E-001                     2.130023046669E-001                     1.887694804103E+001                    -1.191152586355E+001                    -6.174948360487E+003                     3.896448564787E+003
   12.2500                    -2.775743383495E+006                     6.391371806802E-010                     8.838846752461E+006                     2.963664497146E-008                     5.491204146657E+007                    -3.882137666888E-008                    -4.488372504711E-001                    -9.255104660988E-001                    -7.374766469002E-001                     2.223728448153E-001                     1.401772246531E+001                    -8.845310339931E+000                    -6.191943223492E+003                     3.907172477879E+003
   12.2750                    -2.785109880582E+006                     9.037909309839E-010                     8.836998849774E+006                     3.163678113927E-008                     5.508394690474E+007                    -3.830095962609E-008                    -4.666455680729E-001                    -9.188346152928E-001                    -7.321571148527E-001                     2.311958382296E-001                     9.822393584380E+000                    -6.198019667586E+000                    -6.193691598676E+003                     3.908275718518E+003
   12.3000                    -2.794294522438E+006                     1.001911227594E-009                     8.835117851442E+006                     2.503268886622E-008                     5.525313392244E+007                    -3.719941021885E-008                    -4.844545650184E-001                    -9.121585098194E-001                    -7.268373798781E-001                     2.400191682196E-001                     6.371037664267E+000                    -4.020182698528E+000                    -6.195440040556E+003                     3.909379001243E+003
   12.3250                    -2.803302257615E+006                     5.653030127339E-010                     8.833202438332E+006                     3.531959907876E-008                     5.541966523621E+007                    -3.975118845201E-008                    -5.022628826201E-001                    -9.054826590134E-001                    -7.215178478307E-001                     2.488421616339E-001                     3.663918016507E+000                    -2.311965584728E+000                    -6.197188415740E+003                     3.910482241882E+003
   12.3500                    -2.812140062370E+006                     9.457495550591E-010                     8.831251474262E+006                     2.225626394292E-008                     5.558364991393E+007                    -3.779442037111E-008                    -5.200718795656E-001                    -8.988065535400E-001                    -7.161981128561E-001                     2.576654916239E-001                     1.700828101111E+000                    -1.073237997573E+000                    -6.198936857620E+003                     3.911585524607E+003
   12.3750                    -2.820813063542E+006                     1.056609227196E-009                     8.829263816618E+006                     2.653062258773E-008                     5.574515715083E+007                    -4.030456524085E-008                    -5.378801971674E-001                    -8.921307027340E-001                    -7.108785808086E-001                     2.664884850383E-001                     4.819176865260E-001                    -3.040944423156E-001                    -6.200685232804E+003                     3.912688765247E+003
   12.4000                    -2.829327915710E+006                     8.665485863590E-010                     8.827238469620E+006                     4.279885934544E-008                     5.590429073614E+007                    -3.917526025798E-008                    -5.556885147691E-001                    -8.854548519280E-001                    -7.055590487612E-001                     2.753114784526E-001                     7.097695912747E-003                    -4.478710660883E-003                    -6.202433607989E+003                     3.913792005886E+003
   12.4250                    -2.837690862764E+006                     9.716619869815E-010                     8.825174279749E+006                     3.236189555222E-008                     5.606114489967E+007                    -3.948057158976E-008                    -5.734975117147E-001                    -8.787787464546E-001                    -7.002393137866E-001                     2.841348084426E-001                    -2.763925944366E-001                     1.744062403504E-001                    -6.204182049869E+003                     3.914895288611E+003
   12.4500                    -2.845907467580E+006                     1.182430889313E-009                     8.823070645780E+006                     2.298831724978E-008                     5.621580715108E+007                    -3.965577866083E-008                    -5.913058293164E-001                    -8.721028956486E-001                    -6.949197817391E-001                     2.929578018570E-001                    -1.289781836998E+000                     8.138640672391E-001                    -6.205930425053E+003                     3.915998529250E+003
   12.4750                    -2.853984486695E+006                     9.362085759412E-010                     8.820926665333E+006                     2.823759048809E-008                     5.636838734841E+007                    -3.773717449640E-008                    -6.091148262619E-001                    -8.654267901752E-001                    -6.896000467646E-001                     3.017811318470E-001                    -3.047342740239E+000                     1.922900978832E+000                    -6.207678866933E+003                     3.917101811976E+003
