
These predictions were generated by HydroDyn on 11-May-2023 at 10:52:05.




    Time                       HydroFxi                       HydroFyi                       HydroFzi                       HydroMxi                       HydroMyi                       HydroMzi                        M1N1Vxi                        M1N1Vzi                        M1N1Axi                        M1N1Azi                       M1N1FDxi                       M1N1FDzi                       M1N1FIxi                       M1N1FIzi
   (sec)                            (N)                            (N)                            (N)                          (N-m)                          (N-m)                          (N-m)                          (m/s)                          (m/s)                        (m/s^2)                        (m/s^2)                          (N/m)                          (N/m)                          (N/m)                          (N/m)
    0.0000                      6.77675300E+05                      8.42208248E-10                      8.99662156E+06                      2.25398346E-08                     -9.41303324E+06                     -4.05855904E-08                      1.08906615E+00                     -4.94341731E-01                     -3.93907428E-01                     -5.39569139E-01                      1.50592864E+03                     -9.50254663E+02                     -3.76924435E+02                      2.37842746E+02
    0.0250                      6.31046671E+05                      6.18808390E-10                      8.99475819E+06                      3.04007340E-08                     -8.53086116E+06                     -3.82367749E-08                      1.07791809E+00                     -5.07166940E-01                     -4.04126969E-01                     -5.34045920E-01                      1.49936768E+03                     -9.46114640E+02                     -4.73597237E+02                      2.98844163E+02
    0.0500                      5.84448158E+05                      7.80788195E-10                      8.99290113E+06                      4.19253694E-08                     -7.64936587E+06                     -3.80424858E-08                      1.06677003E+00                     -5.19992149E-01                     -4.14346510E-01                     -5.28522700E-01                      1.49282105E+03                     -9.41983655E+02                     -5.70270038E+02                      3.59845580E+02
    0.0750                      5.37879766E+05                      7.02508798E-10                      8.99105029E+06                      3.55710773E-08                     -6.76854714E+06                     -3.85663723E-08                      1.05562197E+00                     -5.32817359E-01                     -4.24566053E-01                     -5.22999480E-01                      1.48628874E+03                     -9.37861709E+02                     -6.66942847E+02                      4.20847001E+02
    0.1000                      4.91341510E+05                      8.16458446E-10                      8.98920554E+06                      1.73452051E-08                     -5.88840499E+06                     -3.86999460E-08                      1.04447391E+00                     -5.45642567E-01                     -4.34785593E-01                     -5.17476260E-01                      1.47977075E+03                     -9.33748801E+02                     -7.63615641E+02                      4.81848413E+02
    0.1250                      4.44833390E+05                      9.67758859E-10                      8.98736679E+06                      1.83712940E-08                     -5.00893906E+06                     -3.95881244E-08                      1.03332585E+00                     -5.58467776E-01                     -4.45005134E-01                     -5.11953041E-01                      1.47326709E+03                     -9.29644931E+02                     -8.60288435E+02                      5.42849825E+02
    0.1500                      3.98355395E+05                      6.75674794E-10                      8.98553392E+06                      2.97744988E-08                     -4.13014888E+06                     -3.83772604E-08                      1.02217779E+00                     -5.71292988E-01                     -4.55224677E-01                     -5.06429820E-01                      1.46677775E+03                     -9.25550098E+02                     -9.56961259E+02                      6.03851256E+02
    0.1750                      3.51907569E+05                      7.20452344E-10                      8.98370682E+06                      3.52458167E-08                     -3.25203501E+06                     -3.84848403E-08                      1.01102973E+00                     -5.84118192E-01                     -4.65444215E-01                     -5.00906602E-01                      1.46030274E+03                     -9.21464306E+02                     -1.05363402E+03                      6.64852650E+02
    0.2000                      3.05489858E+05                      6.29054100E-10                      8.98188538E+06                      3.79198929E-08                     -2.37459613E+06                     -3.82228971E-08                      9.99881672E-01                     -5.96943404E-01                     -4.75663759E-01                     -4.95383381E-01                      1.45384204E+03                     -9.17387550E+02                     -1.15030685E+03                      7.25854080E+02
    0.2250                      2.59102316E+05                      1.00619383E-09                      8.98006948E+06                      3.65798190E-08                     -1.49783303E+06                     -3.82783811E-08                      9.88733616E-01                     -6.09768608E-01                     -4.85883296E-01                     -4.89860163E-01                      1.44739568E+03                     -9.13319834E+02                     -1.24697961E+03                      7.86855475E+02
    0.2500                      2.12744886E+05                      9.09266152E-10                      8.97825901E+06                      3.98567117E-08                     -6.21744362E+05                     -4.00842825E-08                      9.77585554E-01                     -6.22593820E-01                     -4.96102840E-01                     -4.84336942E-01                      1.44096363E+03                     -9.09261155E+02                     -1.34365244E+03                      8.47856905E+02
    0.2750                      1.64385080E+05                      6.81041595E-10                      8.97619380E+06                      2.94353604E-08                      2.77666258E+05                     -3.87329329E-08                      9.64030346E-01                     -6.33885994E-01                     -5.05100810E-01                     -4.77621128E-01                      1.42747419E+03                     -9.00749191E+02                     -1.43701669E+03                      9.06770601E+02
    0.3000                      1.16065785E+05                      7.73903511E-10                      8.97413975E+06                      3.29395018E-08                      1.17631637E+06                     -3.80806497E-08                      9.50475138E-01                     -6.45178168E-01                     -5.14098780E-01                     -4.70905313E-01                      1.41404818E+03                     -8.92277257E+02                     -1.53038095E+03                      9.65684297E+02
    0.3250                      6.77870122E+04                      5.59177270E-10                      8.97209666E+06                      2.38695001E-08                      2.07420525E+06                     -3.81309838E-08                      9.36919946E-01                     -6.56470329E-01                     -5.23096739E-01                     -4.64189506E-01                      1.40068562E+03                     -8.83845363E+02                     -1.62374510E+03                      1.02459792E+03
    0.3500                      1.95486376E+04                      7.23325479E-10                      8.97006441E+06                      3.82590313E-08                      2.97133540E+06                     -3.83061367E-08                      9.23364738E-01                     -6.67762503E-01                     -5.32094709E-01                     -4.57473691E-01                      1.38738648E+03                     -8.75453488E+02                     -1.71710936E+03                      1.08351162E+03
    0.3750                     -2.86492926E+04                      6.37348247E-10                      8.96804288E+06                      3.05178278E-08                      3.86770612E+06                     -3.99124906E-08                      9.09809530E-01                     -6.79054677E-01                     -5.41092679E-01                     -4.50757876E-01                      1.37415079E+03                     -8.67101642E+02                     -1.81047362E+03                      1.14242531E+03
    0.4000                     -7.68067915E+04                      8.24047861E-10                      8.96603193E+06                      3.58495004E-08                      4.76331783E+06                     -3.82732312E-08                      8.96254322E-01                     -6.90346852E-01                     -5.50090649E-01                     -4.44042061E-01                      1.36097853E+03                     -8.58789826E+02                     -1.90383787E+03                      1.20133901E+03
    0.4250                     -1.24923874E+05                      7.18609200E-10                      8.96403142E+06                      3.22855110E-08                      5.65817093E+06                     -4.00964255E-08                      8.82699114E-01                     -7.01639026E-01                     -5.59088619E-01                     -4.37326246E-01                      1.34786970E+03                     -8.50518040E+02                     -1.99720213E+03                      1.26025271E+03
    0.4500                     -1.73000502E+05                      8.64651233E-10                      8.96204123E+06                      2.75549201E-08                      6.55226482E+06                     -3.80598331E-08                      8.69143922E-01                     -7.12931187E-01                     -5.68086578E-01                     -4.30610439E-01                      1.33482433E+03                     -8.42286293E+02                     -2.09056628E+03                      1.31916633E+03
    0.4750                     -2.21036808E+05                      8.51152916E-10                      8.96006121E+06                      2.06611290E-08                      7.44560210E+06                     -3.82749523E-08                      8.55588714E-01                     -7.24223361E-01                     -5.77084548E-01                     -4.23894625E-01                      1.32184239E+03                     -8.34094566E+02                     -2.18393054E+03                      1.37808003E+03
    0.5000                     -2.69032760E+05                      8.11904797E-10                      8.95809121E+06                      2.34609727E-08                      8.33818221E+06                     -3.83998389E-08                      8.42033505E-01                     -7.35515535E-01                     -5.86082518E-01                     -4.17178810E-01                      1.30892388E+03                     -8.25942868E+02                     -2.27729480E+03                      1.43699372E+03
    0.5250                     -3.17743628E+05                      7.14922913E-10                      8.95594949E+06                      3.95739517E-08                      9.23095762E+06                     -4.00582345E-08                      8.26404956E-01                     -7.44996616E-01                     -5.93637352E-01                     -4.09435765E-01                      1.28966250E+03                     -8.13788763E+02                     -2.36505154E+03                      1.49236903E+03
    0.5500                     -3.66391333E+05                      1.00169439E-09                      8.95382291E+06                      4.61858503E-08                      1.01227130E+07                     -3.80945275E-08                      8.10776369E-01                     -7.54477720E-01                     -6.01192204E-01                     -4.01692703E-01                      1.27054385E+03                     -8.01724720E+02                     -2.45280849E+03                      1.54774446E+03
    0.5750                     -4.14975676E+05                      7.64579372E-10                      8.95171132E+06                      3.96615553E-08                      1.10134445E+07                     -3.84449485E-08                      7.95147820E-01                     -7.63958801E-01                     -6.08747038E-01                     -3.93949658E-01                      1.25156801E+03                     -7.89750796E+02                     -2.54056523E+03                      1.60311976E+03
    0.6000                     -4.63496923E+05                      6.83047369E-10                      8.94961454E+06                      2.21399808E-08                      1.19031573E+07                     -3.82558636E-08                      7.79519233E-01                     -7.73439905E-01                     -6.16301889E-01                     -3.86206596E-01                      1.23273491E+03                     -7.77866935E+02                     -2.62832218E+03                      1.65849520E+03
    0.6250                     -5.11954881E+05                      1.10095310E-09                      8.94753242E+06                      3.45900912E-08                      1.27918475E+07                     -3.82211590E-08                      7.63890684E-01                     -7.82920986E-01                     -6.23856723E-01                     -3.78463551E-01                      1.21404462E+03                     -7.66073192E+02                     -2.71607893E+03                      1.71387050E+03
    0.6500                     -5.60349712E+05                      8.60964945E-10                      8.94546477E+06                      2.90094858E-08                      1.36795181E+07                     -3.81448481E-08                      7.48262134E-01                     -7.92402068E-01                     -6.31411557E-01                     -3.70720507E-01                      1.19549710E+03                     -7.54369540E+02                     -2.80383567E+03                      1.76924580E+03
    0.6750                     -6.08681577E+05                      7.29884903E-10                      8.94341142E+06                      4.56836478E-08                      1.45661720E+07                     -3.81864535E-08                      7.32633547E-01                     -8.01883172E-01                     -6.38966409E-01                     -3.62977444E-01                      1.17709231E+03                     -7.42755951E+02                     -2.89159262E+03                      1.82462124E+03
    0.7000                     -6.56950300E+05                      5.94034370E-10                      8.94137217E+06                      2.80649288E-08                      1.54518057E+07                     -4.00408720E-08                      7.17004998E-01                     -8.11364253E-01                     -6.46521243E-01                     -3.55234400E-01                      1.15883034E+03                     -7.31232481E+02                     -2.97934936E+03                      1.87999654E+03
    0.7250                     -7.05156170E+05                      8.25077853E-10                      8.93934683E+06                      2.87154501E-08                      1.63364243E+07                     -4.00686293E-08                      7.01376411E-01                     -8.20845357E-01                     -6.54076095E-01                     -3.47491337E-01                      1.14071109E+03                     -7.19799074E+02                     -3.06710631E+03                      1.93537197E+03
    0.7500                     -7.53299028E+05                      8.30227814E-10                      8.93733521E+06                      2.40126148E-08                      1.72200248E+07                     -3.81916720E-08                      6.85747862E-01                     -8.30326438E-01                     -6.61630929E-01                     -3.39748293E-01                      1.12273467E+03                     -7.08455784E+02                     -3.15486306E+03                      1.99074728E+03
    0.7750                     -8.00794740E+05                      8.96472566E-10                      8.93523040E+06                      3.82694397E-08                      1.80798867E+07                     -3.63598176E-08                      6.68430774E-01                     -8.37762986E-01                     -6.67556602E-01                     -3.31168681E-01                      1.09942282E+03                     -6.93745800E+02                     -3.23485142E+03                      2.04122066E+03
    0.8000                     -8.48194921E+05                      8.74842733E-10                      8.93314302E+06                      3.59024095E-08                      1.89383278E+07                     -3.82645304E-08                      6.51113645E-01                     -8.45199553E-01                     -6.73482290E-01                     -3.22589048E-01                      1.07635549E+03                     -6.79190102E+02                     -3.31483997E+03                      2.09169417E+03
    0.8250                     -8.95499434E+05                      8.76414826E-10                      8.93107283E+06                      2.31617329E-08                      1.97953455E+07                     -3.82506526E-08                      6.33796557E-01                     -8.52636101E-01                     -6.79407963E-01                     -3.14009435E-01                      1.05353277E+03                     -6.64788760E+02                     -3.39482834E+03                      2.14216755E+03
    0.8500                     -9.42710025E+05                      9.96544427E-10                      8.92901945E+06                      3.17694308E-08                      2.06510033E+07                     -3.99107695E-08                      6.16479428E-01                     -8.60072668E-01                     -6.85333651E-01                     -3.05429802E-01                      1.03095457E+03                     -6.50541706E+02                     -3.47481689E+03                      2.19264106E+03
    0.8750                     -9.89835153E+05                      9.08940891E-10                      8.92698228E+06                      2.96704154E-08                      2.15056419E+07                     -3.81292220E-08                      5.99162340E-01                     -8.67509216E-01                     -6.91259325E-01                     -2.96850190E-01                      1.00862098E+03                     -6.36449007E+02                     -3.55480526E+03                      2.24311444E+03
    0.9000                     -1.03687648E+06                      8.76360616E-10                      8.92496103E+06                      2.86955008E-08                      2.23593218E+07                     -4.00686428E-08                      5.81845252E-01                     -8.74945765E-01                     -6.97184998E-01                     -2.88270577E-01                      9.86531949E+02                     -6.22510630E+02                     -3.63479362E+03                      2.29358783E+03
    0.9250                     -1.08383425E+06                      8.73975371E-10                      8.92295545E+06                      2.87891759E-08                      2.32120474E+07                     -4.00877248E-08                      5.64528123E-01                     -8.82382331E-01                     -7.03110686E-01                     -2.79690944E-01                      9.64687432E+02                     -6.08726542E+02                     -3.71478217E+03                      2.34406133E+03
    0.9500                     -1.13070838E+06                      7.96563336E-10                      8.92096527E+06                      3.58746539E-08                      2.40638169E+07                     -3.99819067E-08                      5.47211035E-01                     -8.89818879E-01                     -7.09036359E-01                     -2.71111332E-01                      9.43087530E+02                     -5.95096807E+02                     -3.79477054E+03                      2.39453471E+03
    0.9750                     -1.17749923E+06                      8.51207126E-10                      8.91899020E+06                      2.65487805E-08                      2.49146369E+07                     -3.65731750E-08                      5.29893906E-01                     -8.97255446E-01                     -7.14962047E-01                     -2.62531699E-01                      9.21732141E+02                     -5.81621362E+02                     -3.87475909E+03                      2.44500822E+03
    1.0000                     -1.22420675E+06                      5.77012396E-10                      8.91702997E+06                      4.26574227E-08                      2.57645063E+07                     -3.83790222E-08                      5.12576818E-01                     -9.04691994E-01                     -7.20887721E-01                     -2.53952086E-01                      9.00621366E+02                     -5.68300271E+02                     -3.95474745E+03                      2.49548160E+03
    1.0250                     -1.26889666E+06                      9.11055086E-10                      8.91504484E+06                      3.66292586E-08                      2.65671552E+07                     -3.81344262E-08                      4.93997595E-01                     -9.09900887E-01                     -7.25038334E-01                     -2.44747159E-01                      8.75377030E+02                     -5.52370866E+02                     -4.02499795E+03                      2.53981031E+03
    1.0500                     -1.31346302E+06                      8.73270640E-10                      8.91307678E+06                      3.30114928E-08                      2.73683127E+07                     -3.99541511E-08                      4.75418371E-01                     -9.15109779E-01                     -7.29188947E-01                     -2.35542231E-01                      8.50491539E+02                     -5.36667895E+02                     -4.09524845E+03                      2.58413901E+03
    1.0750                     -1.35790626E+06                      8.03339600E-10                      8.91112543E+06                      3.06193091E-08                      2.81679861E+07                     -3.98951705E-08                      4.56839058E-01                     -9.20318697E-01                     -7.33339580E-01                     -2.26337260E-01                      8.25964777E+02                     -5.21191285E+02                     -4.16549928E+03                      2.62846792E+03
    1.1000                     -1.40222630E+06                      6.54858112E-10                      8.90919058E+06                      3.25448522E-08                      2.89661793E+07                     -3.99055788E-08                      4.38259834E-01                     -9.25527590E-01                     -7.37490193E-01                     -2.17132333E-01                      8.01796979E+02                     -5.05941185E+02                     -4.23574977E+03                      2.67279662E+03
    1.1250                     -1.44642368E+06                      8.24373122E-10                      8.90727192E+06                      2.17557395E-08                      2.97629050E+07                     -3.80754456E-08                      4.19680610E-01                     -9.30736482E-01                     -7.41640806E-01                     -2.07927406E-01                      7.77988026E+02                     -4.90917519E+02                     -4.30600027E+03                      2.71712532E+03
    1.1500                     -1.49049871E+06                      7.97376488E-10                      8.90536912E+06                      4.14431163E-08                      3.05581703E+07                     -3.99732331E-08                      4.01101386E-01                     -9.35945375E-01                     -7.45791419E-01                     -1.98722479E-01                      7.54537918E+02                     -4.76120287E+02                     -4.37625076E+03                      2.76145403E+03
    1.1750                     -1.53445202E+06                      9.59952604E-10                      8.90348201E+06                      3.59171546E-08                      3.13519989E+07                     -3.82055498E-08                      3.82522162E-01                     -9.41154267E-01                     -7.49942033E-01                     -1.89517551E-01                      7.31446656E+02                     -4.61549491E+02                     -4.44650126E+03                      2.80578273E+03
    1.2000                     -1.57828418E+06                      9.88467121E-10                      8.90161024E+06                      2.91005587E-08                      3.21444031E+07                     -3.80824116E-08                      3.63942850E-01                     -9.46363185E-01                     -7.54092665E-01                     -1.80312580E-01                      7.08714131E+02                     -4.47205061E+02                     -4.51675209E+03                      2.85011164E+03
    1.2250                     -1.62199527E+06                      8.79613223E-10                      8.89975351E+06                      3.06722182E-08                      3.29353894E+07                     -3.83720833E-08                      3.45363626E-01                     -9.51572077E-01                     -7.58243279E-01                     -1.71107653E-01                      6.86340561E+02                     -4.33087135E+02                     -4.58700259E+03                      2.89444034E+03
    1.2500                     -1.66558613E+06                      1.01486744E-09                      8.89791157E+06                      3.11067664E-08                      3.37249832E+07                     -3.97962913E-08                      3.26784402E-01                     -9.56780970E-01                     -7.62393892E-01                     -1.61902726E-01                      6.64325836E+02                     -4.19195643E+02                     -4.65725308E+03                      2.93876904E+03
    1.2750                     -1.70581855E+06                      8.10766385E-10                      8.89610114E+06                      1.87165040E-08                      3.44442789E+07                     -4.00564998E-08                      3.07400521E-01                     -9.59633968E-01                     -7.64667253E-01                     -1.52299138E-01                      6.39456176E+02                     -4.03502662E+02                     -4.71603599E+03                      2.97586159E+03
    1.3000                     -1.74588747E+06                      7.81980817E-10                      8.89430603E+06                      3.10616636E-08                      3.51615777E+07                     -3.82246318E-08                      2.88016639E-01                     -9.62486965E-01                     -7.66940613E-01                     -1.42695550E-01                      6.15060948E+02                     -3.88109051E+02                     -4.77481889E+03                      3.01295414E+03
    1.3250                     -1.78579391E+06                      5.75657143E-10                      8.89252549E+06                      2.21937572E-08                      3.58768969E+07                     -3.82454485E-08                      2.68632666E-01                     -9.65339976E-01                     -7.69213985E-01                     -1.33091916E-01                      5.91140039E+02                     -3.73014740E+02                     -4.83360208E+03                      3.05004686E+03
    1.3500                     -1.82553817E+06                      9.85322934E-10                      8.89075901E+06                      3.92330786E-08                      3.65902428E+07                     -3.85611681E-08                      2.49248784E-01                     -9.68192973E-01                     -7.71487345E-01                     -1.23488328E-01                      5.67693678E+02                     -3.58219873E+02                     -4.89238498E+03                      3.08713941E+03
    1.3750                     -1.86512129E+06                      9.98712831E-10                      8.88900625E+06                      2.54515679E-08                      3.73016443E+07                     -3.66651154E-08                      2.29864903E-01                     -9.71045971E-01                     -7.73760706E-01                     -1.13884740E-01                      5.44721749E+02                     -3.43724377E+02                     -4.95116789E+03                      3.12423196E+03
    1.4000                     -1.90454387E+06                      9.77841939E-10                      8.88726663E+06                      2.87475425E-08                      3.80111102E+07                     -3.81951415E-08                      2.10481021E-01                     -9.73898968E-01                     -7.76034067E-01                     -1.04281152E-01                      5.22224252E+02                     -3.29528252E+02                     -5.00995079E+03                      3.16132451E+03
    1.4250                     -1.94380685E+06                      7.47340557E-10                      8.88553972E+06                      2.50152850E-08                      3.87186656E+07                     -3.83981041E-08                      1.91097140E-01                     -9.76751966E-01                     -7.78307428E-01                     -9.46775634E-02                      5.00201188E+02                     -3.15631498E+02                     -5.06873370E+03                      3.19841705E+03
    1.4500                     -1.98291123E+06                      1.00147755E-09                      8.88382496E+06                      3.68460991E-08                      3.94243304E+07                     -3.95065924E-08                      1.71713166E-01                     -9.79604977E-01                     -7.80580799E-01                     -8.50739296E-02                      4.78652454E+02                     -3.02034051E+02                     -5.12751689E+03                      3.23550978E+03
    1.4750                     -2.02185748E+06                      8.84492132E-10                      8.88212174E+06                      3.55251071E-08                      4.01281136E+07                     -3.66928710E-08                      1.52329285E-01                     -9.82457974E-01                     -7.82854160E-01                     -7.54703415E-02                      4.57578257E+02                     -2.88736041E+02                     -5.18629979E+03                      3.27260233E+03
    1.5000                     -2.06064695E+06                      7.96183865E-10                      8.88042955E+06                      3.46603475E-08                      4.08300464E+07                     -3.98518024E-08                      1.32945403E-01                     -9.85310972E-01                     -7.85127521E-01                     -6.58667535E-02                      4.36978492E+02                     -2.75737402E+02                     -5.24508270E+03                      3.30969488E+03
    1.5250                     -2.09484508E+06                      8.97448348E-10                      8.87880963E+06                      3.57246003E-08                      4.14404295E+07                     -3.98188427E-08                      1.13234181E-01                     -9.85737782E-01                     -7.85467624E-01                     -5.61009798E-02                      4.14753975E+02                     -2.61713529E+02                     -5.29095038E+03                      3.33863780E+03
    1.5500                     -2.12884445E+06                      7.30698054E-10                      8.87719922E+06                      3.21224470E-08                      4.20483390E+07                     -4.01675221E-08                      9.35229588E-02                     -9.86164593E-01                     -7.85807728E-01                     -4.63352062E-02                      3.93109468E+02                     -2.48055649E+02                     -5.33681806E+03                      3.36758072E+03
    1.5750                     -2.16264632E+06                      9.07748269E-10                      8.87559750E+06                      3.69866117E-08                      4.26537955E+07                     -3.83183069E-08                      7.38116425E-02                     -9.86591405E-01                     -7.86147834E-01                     -3.65693860E-02                      3.72044872E+02                     -2.34763697E+02                     -5.38268596E+03                      3.39652379E+03
    1.6000                     -2.19625168E+06                      4.87294666E-10                      8.87400371E+06                      2.74551735E-08                      4.32568163E+07                     -4.05925293E-08                      5.41004202E-02                     -9.87018216E-01                     -7.86487937E-01                     -2.68036123E-02                      3.51560387E+02                     -2.21837801E+02                     -5.42855365E+03                      3.42546671E+03
    1.6250                     -2.22966221E+06                      9.61307856E-10                      8.87241707E+06                      3.81089778E-08                      4.38574335E+07                     -3.84952487E-08                      3.43891978E-02                     -9.87445027E-01                     -7.86828041E-01                     -1.70378387E-02                      3.31655912E+02                     -2.09277897E+02                     -5.47442133E+03                      3.45440964E+03
    1.6500                     -2.26287930E+06                      9.77787729E-10                      8.87083665E+06                      3.55710773E-08                      4.44556671E+07                     -3.84969834E-08                      1.46779755E-02                     -9.87871837E-01                     -7.87168145E-01                     -7.27206506E-03                      3.12331448E+02                     -1.97083984E+02                     -5.52028901E+03                      3.48335256E+03
    1.6750                     -2.29590481E+06                      6.26289385E-10                      8.86926165E+06                      2.40299620E-08                      4.50515531E+07                     -3.85039223E-08                     -5.03324683E-03                     -9.88298648E-01                     -7.87508249E-01                      2.49370858E-03                      2.93586993E+02                     -1.85256062E+02                     -5.56615669E+03                      3.51229549E+03
    1.7000                     -2.32874047E+06                      7.64254111E-10                      8.86769094E+06                      1.95231504E-08                      4.56451133E+07                     -3.89133170E-08                     -2.47445631E-02                     -9.88725460E-01                     -7.87848354E-01                      1.22595288E-02                      2.75422463E+02                     -1.73794078E+02                     -5.61202459E+03                      3.54123855E+03
    1.7250                     -2.36138806E+06                      1.16258999E-09                      8.86612358E+06                      4.15133726E-08                      4.62363785E+07                     -3.96609828E-08                     -4.44557855E-02                     -9.89152271E-01                     -7.88188458E-01                      2.20253024E-02                      2.57838031E+02                     -1.62698142E+02                     -5.65789228E+03                      3.57018147E+03
    1.7500                     -2.39384970E+06                      6.18212079E-10                      8.86455845E+06                      3.95392573E-08                      4.68253792E+07                     -3.97529232E-08                     -6.41670153E-02                     -9.89579082E-01                     -7.88528562E-01                      3.17910798E-02                      2.40833602E+02                     -1.51968193E+02                     -5.70375998E+03                      3.59912441E+03
    1.7750                     -2.42066083E+06                      7.91630216E-10                      8.86309070E+06                      3.03608353E-08                      4.73043815E+07                     -4.00512956E-08                     -8.37202288E-02                     -9.87569233E-01                     -7.86927052E-01                      4.14785583E-02                      2.23265795E+02                     -1.40882747E+02                     -5.73558308E+03                      3.61920508E+03
    1.8000                     -2.44725058E+06                      1.06381917E-09                      8.86162147E+06                      2.75419097E-08                      4.77805457E+07                     -3.72722686E-08                     -1.03273442E-01                     -9.85559384E-01                     -7.85325542E-01                      5.11660369E-02                      2.06363231E+02                     -1.30217075E+02                     -5.76740619E+03                      3.63928575E+03
    1.8250                     -2.47362153E+06                      9.27860219E-10                      8.86014940E+06                      3.27183245E-08                      4.82539043E+07                     -3.86270876E-08                     -1.22826749E-01                     -9.83549525E-01                     -7.83724025E-01                      6.08535616E-02                      1.90125832E+02                     -1.19971129E+02                     -5.79922944E+03                      3.65936651E+03
    1.8500                     -2.49977639E+06                      8.73812741E-10                      8.85867328E+06                      3.65867579E-08                      4.87244985E+07                     -3.84848403E-08                     -1.42379963E-01                     -9.81539677E-01                     -7.82122515E-01                      7.05410402E-02                      1.74553755E+02                     -1.10145007E+02                     -5.83105255E+03                      3.67944718E+03
    1.8750                     -2.52571811E+06                      7.17308157E-10                      8.85719158E+06                      3.26940384E-08                      4.91923624E+07                     -3.98552719E-08                     -1.61933176E-01                     -9.79529828E-01                     -7.80521005E-01                      8.02285187E-02                      1.59646920E+02                     -1.00738658E+02                     -5.86287565E+03                      3.69952785E+03
    1.9000                     -2.55145010E+06                      7.83769750E-10                      8.85570294E+06                      4.02088605E-08                      4.96575457E+07                     -3.66061348E-08                     -1.81486390E-01                     -9.77519979E-01                     -7.78919496E-01                      8.99159972E-02                      1.45405328E+02                     -9.17520839E+01                     -5.89469876E+03                      3.71960852E+03
    1.9250                     -2.57697560E+06                      9.77408258E-10                      8.85420567E+06                      3.37452808E-08                      5.01200827E+07                     -4.02802791E-08                     -2.01039603E-01                     -9.75510130E-01                     -7.77317986E-01                      9.96034758E-02                      1.31828977E+02                     -8.31852831E+01                     -5.92652186E+03                      3.73968919E+03
    1.9500                     -2.60229865E+06                      7.47936869E-10                      8.85269834E+06                      3.22178568E-08                      5.05800312E+07                     -3.63580693E-08                     -2.20592910E-01                     -9.73500272E-01                     -7.75716469E-01                      1.09291001E-01                      1.18917808E+02                     -7.50382183E+01                     -5.95834512E+03                      3.75976995E+03
    1.9750                     -2.62742272E+06                      8.16133185E-10                      8.85117922E+06                      2.61506615E-08                      5.10374273E+07                     -4.07243683E-08                     -2.40146124E-01                     -9.71490423E-01                     -7.74114959E-01                      1.18978479E-01                      1.06671945E+02                     -6.73109672E+01                     -5.99016823E+03                      3.77985062E+03
    2.0000                     -2.65235230E+06                      6.42172947E-10                      8.84964672E+06                      3.06262480E-08                      5.14923307E+07                     -4.01293582E-08                     -2.59699345E-01                     -9.69480574E-01                     -7.72513449E-01                      1.28665954E-01                      9.50913197E+01                     -6.00034874E+01                     -6.02199131E+03                      3.79993128E+03
    2.0250                     -2.67080658E+06                      8.66602796E-10                      8.84822352E+06                      3.26897016E-08                      5.18224974E+07                     -3.76833981E-08                     -2.78613201E-01                     -9.65083523E-01                     -7.69009738E-01                      1.38036673E-01                      8.37358593E+01                     -5.28380886E+01                     -6.03898642E+03                      3.81065534E+03
    2.0500                     -2.68904191E+06                      8.90346824E-10                      8.84678174E+06                      2.93633693E-08                      5.21497031E+07                     -3.85975973E-08                     -2.97526878E-01                     -9.60686513E-01                     -7.65506060E-01                      1.47407302E-01                      7.31022927E+01                     -4.61282114E+01                     -6.05598136E+03                      3.82137930E+03
    2.0750                     -2.70706338E+06                      5.73814000E-10                      8.84531950E+06                      3.80742833E-08                      5.24740069E+07                     -3.96262884E-08                     -3.16440735E-01                     -9.56289462E-01                     -7.62002348E-01                      1.56778021E-01                      6.31904173E+01                     -3.98737279E+01                     -6.07297646E+03                      3.83210337E+03
    2.1000                     -2.72487599E+06                      9.53338970E-10                      8.84383514E+06                      2.65617909E-08                      5.27954684E+07                     -3.77406439E-08                     -3.35354411E-01                     -9.51892452E-01                     -7.58498670E-01                      1.66148651E-01                      5.40004220E+01                     -3.40747573E+01                     -6.08997140E+03                      3.84282733E+03
    2.1250                     -2.74248532E+06                      6.37402457E-10                      8.84232672E+06                      3.99469173E-08                      5.31141515E+07                     -3.83634097E-08                     -3.54268268E-01                     -9.47495401E-01                     -7.54994959E-01                      1.75519370E-01                      4.55321315E+01                     -2.87311890E+01                     -6.10696651E+03                      3.85355140E+03
    2.1500                     -2.75989703E+06                      9.07748269E-10                      8.84079261E+06                      2.64429624E-08                      5.34301262E+07                     -3.84154514E-08                     -3.73182125E-01                     -9.43098349E-01                     -7.51491247E-01                      1.84890088E-01                      3.77856369E+01                     -2.38430805E+01                     -6.12396161E+03                      3.86427546E+03
    2.1750                     -2.77711664E+06                      9.60061024E-10                      8.83923100E+06                      2.87995842E-08                      5.37434538E+07                     -3.75689063E-08                     -3.92095801E-01                     -9.38701340E-01                     -7.47987569E-01                      1.94260718E-01                      3.07610018E+01                     -1.94104718E+01                     -6.14095655E+03                      3.87499942E+03
    2.2000                     -2.79415070E+06                      6.78276879E-10                      8.83764024E+06                      2.70726670E-08                      5.40542177E+07                     -3.78030940E-08                     -4.11009658E-01                     -9.34304289E-01                     -7.44483858E-01                      2.03631437E-01                      2.44580922E+01                     -1.54332786E+01                     -6.15795165E+03                      3.88572349E+03
    2.2250                     -2.81100485E+06                      9.15662945E-10                      8.83601854E+06                      4.14118912E-08                      5.43624795E+07                     -3.82003457E-08                     -4.29923334E-01                     -9.29907279E-01                     -7.40980180E-01                      2.13002066E-01                      1.88770283E+01                     -1.19115765E+01                     -6.17494659E+03                      3.89644745E+03
    2.2500                     -2.82768596E+06                      9.13386120E-10                      8.83436444E+06                      2.83936589E-08                      5.46683303E+07                     -3.78846260E-08                     -4.48837191E-01                     -9.25510228E-01                     -7.37476468E-01                      2.22372785E-01                      1.40177036E+01                     -8.84529845E+00                     -6.19194170E+03                      3.90717151E+03
    2.2750                     -2.83733937E+06                      1.01909583E-09                      8.83283079E+06                      3.19940775E-08                      5.48391413E+07                     -3.89046434E-08                     -4.66645854E-01                     -9.18834267E-01                     -7.32156841E-01                      2.31195947E-01                      9.82230581E+00                     -6.19796428E+00                     -6.19369015E+03                      3.90827480E+03
    2.3000                     -2.84680688E+06                      9.96707057E-10                      8.83126056E+06                      2.98282752E-08                      5.50072241E+07                     -3.70415504E-08                     -4.84454347E-01                     -9.12158371E-01                     -7.26837264E-01                      2.40019024E-01                      6.37105582E+00                     -4.02019415E+00                     -6.19543858E+03                      3.90937808E+03
    2.3250                     -2.85609498E+06                      8.85630545E-10                      8.82965218E+06                      2.40811364E-08                      5.51726579E+07                     -3.77701342E-08                     -5.02263011E-01                     -9.05482411E-01                     -7.21517636E-01                      2.48842186E-01                      3.66388781E+00                     -2.31194652E+00                     -6.19718703E+03                      3.91048137E+03
    2.3500                     -2.86521040E+06                      1.10469359E-09                      8.82800459E+06                      3.73595772E-08                      5.53355362E+07                     -3.74041076E-08                     -5.20071504E-01                     -8.98806514E-01                     -7.16198059E-01                      2.57665264E-01                      1.70085342E+00                     -1.07325398E+00                     -6.19893547E+03                      3.91158465E+03
    2.3750                     -2.87415973E+06                      5.77933968E-10                      8.82631640E+06                      2.78914565E-08                      5.54959442E+07                     -3.72202269E-08                     -5.37880167E-01                     -8.92130554E-01                     -7.10878432E-01                      2.66488425E-01                      4.81915217E-01                     -3.04092884E-01                     -6.20068392E+03                      3.91268793E+03
    2.4000                     -2.88294976E+06                      8.50339764E-10                      8.82458664E+06                      2.92289283E-08                      5.56539783E+07                     -3.63042929E-08                     -5.55688831E-01                     -8.85454593E-01                     -7.05558804E-01                      2.75311587E-01                      7.09546088E-03                     -4.47730033E-03                     -6.20243237E+03                      3.91379122E+03
    2.4250                     -2.89158686E+06                      1.11418036E-09                      8.82281421E+06                      2.16698707E-08                      5.58097254E+07                     -3.82792756E-08                     -5.73497324E-01                     -8.78778697E-01                     -7.00239227E-01                      2.84134665E-01                     -2.76388039E-01                      1.74403366E-01                     -6.20418080E+03                      3.91489450E+03
    2.4500                     -2.90007791E+06                      5.26325945E-10                      8.82099828E+06                      2.63926554E-08                      5.59632884E+07                     -3.89462768E-08                     -5.91305987E-01                     -8.72102737E-01                     -6.94919600E-01                      2.92957826E-01                     -1.28979809E+00                      8.13874320E-01                     -6.20592925E+03                      3.91599779E+03
    2.4750                     -2.90842934E+06                      8.49743453E-10                      8.81913812E+06                      4.33495774E-08                      5.61147626E+07                     -4.00313463E-08                     -6.09114481E-01                     -8.65426840E-01                     -6.89600023E-01                      3.01780904E-01                     -3.04730627E+00                      1.92287797E+00                     -6.20767769E+03                      3.91710107E+03
    2.5000                     -2.91664758E+06                      7.52653148E-10                      8.81723287E+06                      3.51608152E-08                      5.62642448E+07                     -3.86704557E-08                     -6.26923144E-01                     -8.58750880E-01                     -6.84280396E-01                      3.10604066E-01                     -5.54894612E+00                      3.50143546E+00                     -6.20942614E+03                      3.91820435E+03
    2.5250                     -2.91766681E+06                      7.32161727E-10                      8.81547662E+06                      1.95005990E-08                      5.62742657E+07                     -4.02100228E-08                     -6.43188103E-01                     -8.49960371E-01                     -6.77275828E-01                      3.18662412E-01                     -8.76033555E+00                      5.52785139E+00                     -6.19588479E+03                      3.90965964E+03
    2.5500                     -2.91877324E+06                      7.39642722E-10                      8.81367448E+06                      2.54775888E-08                      5.62843539E+07                     -3.97676683E-08                     -6.59452908E-01                     -8.41169946E-01                     -6.70271327E-01                      3.26720681E-01                     -1.27017177E+01                      8.01489937E+00                     -6.18234357E+03                      3.90111501E+03
    2.5750                     -2.91997334E+06                      5.49473661E-10                      8.81182614E+06                      2.24366185E-08                      5.62946176E+07                     -3.75593653E-08                     -6.75717868E-01                     -8.32379438E-01                     -6.63266759E-01                      3.34779028E-01                     -1.73731678E+01                      1.09626268E+01                     -6.16880223E+03                      3.89257030E+03
    2.6000                     -2.92127315E+06                      6.84890512E-10                      8.80993128E+06                      2.33976553E-08                      5.63051573E+07                     -4.05387529E-08                     -6.91982672E-01                     -8.23589013E-01                     -6.56262258E-01                      3.42837297E-01                     -2.27745967E+01                      1.43709776E+01                     -6.15526101E+03                      3.88402567E+03
    2.6250                     -2.92267879E+06                      7.65555154E-10                      8.80798969E+06                      3.60993006E-08                      5.63160795E+07                     -3.87667329E-08                     -7.08247632E-01                     -8.14798504E-01                     -6.49257690E-01                      3.50895643E-01                     -2.89061074E+01                      1.82400166E+01                     -6.14171967E+03                      3.87548096E+03
    2.6500                     -2.92419649E+06                      7.71247215E-10                      8.80600145E+06                      2.58245335E-08                      5.63274955E+07                     -3.83356541E-08                     -7.24512591E-01                     -8.06007995E-01                     -6.42253122E-01                      3.58953989E-01                     -3.57676519E+01                      2.25697136E+01                     -6.12817832E+03                      3.86693625E+03
    2.6750                     -2.92583188E+06                      8.75926935E-10                      8.80396640E+06                      3.19004024E-08                      5.63395056E+07                     -3.71647157E-08                     -7.40777396E-01                     -7.97217571E-01                     -6.35248621E-01                      3.67012259E-01                     -4.33591544E+01                      2.73600207E+01                     -6.11463711E+03                      3.85839161E+03
    2.7000                     -2.92759112E+06                      7.17796048E-10                      8.80188475E+06                      3.51694888E-08                      5.63522233E+07                     -4.06480405E-08                     -7.57042356E-01                     -7.88427062E-01                     -6.28244053E-01                      3.75070605E-01                     -5.16807596E+01                      3.26110292E+01                     -6.10109576E+03                      3.84984690E+03
    2.7250                     -2.92947990E+06                      5.97015926E-10                      8.79975675E+06                      2.95923528E-08                      5.63657558E+07                     -3.80190671E-08                     -7.73307160E-01                     -7.79636637E-01                     -6.21239552E-01                      3.83128875E-01                     -6.07323088E+01                      3.83226391E+01                     -6.08755454E+03                      3.84130227E+03
    2.7500                     -2.93150386E+06                      9.33335440E-10                      8.79758257E+06                      2.16559929E-08                      5.63802102E+07                     -3.80719761E-08                     -7.89572120E-01                     -7.70846128E-01                     -6.14234984E-01                      3.91187221E-01                     -7.05139746E+01                      4.44949592E+01                     -6.07401320E+03                      3.83275756E+03
    2.7750                     -2.92634060E+06                      7.83336070E-10                      8.79561142E+06                      2.76676771E-08                      5.62548377E+07                     -4.00842554E-08                     -8.03892882E-01                     -7.60157538E-01                     -6.05717978E-01                      3.98282323E-01                     -8.06538559E+01                      5.08933165E+01                     -6.04551565E+03                      3.81477535E+03
    2.8000                     -2.92130042E+06                      8.12772159E-10                      8.79359676E+06                      2.70345031E-08                      5.61302208E+07                     -4.02785444E-08                     -8.18213507E-01                     -7.49469050E-01                     -5.97201054E-01                      4.05377357E-01                     -9.14745501E+01                      5.77212729E+01                     -6.01701838E+03                      3.79679331E+03
    2.8250                     -2.91638897E+06                      1.08712952E-09                      8.79153927E+06                      2.70891469E-08                      5.60064705E+07                     -3.73538006E-08                     -8.32534269E-01                     -7.38780460E-01                     -5.88684048E-01                      4.12472458E-01                     -1.02976264E+02                      6.49789587E+01                     -5.98852083E+03                      3.77881110E+03
    2.8500                     -2.91161194E+06                      9.90798155E-10                      8.78943969E+06                      3.00572587E-08                      5.58836996E+07                     -3.85655050E-08                     -8.46854894E-01                     -7.28091972E-01                     -5.80167123E-01                      4.19567492E-01                     -1.15158777E+02                      7.26662355E+01                     -5.96002356E+03                      3.76082906E+03
    2.8750                     -2.90697443E+06                      9.37916194E-10                      8.78729851E+06                      3.64254286E-08                      5.57620105E+07                     -3.99801720E-08                     -8.61175656E-01                     -7.17403382E-01                     -5.71650118E-01                      4.26662594E-01                     -1.28022323E+02                      8.07832499E+01                     -5.93152601E+03                      3.74284685E+03
    2.9000                     -2.90248224E+06                      9.09455887E-10                      8.78511684E+06                      3.34495105E-08                      5.56415202E+07                     -3.92307714E-08                     -8.75496418E-01                     -7.06714792E-01                     -5.63133112E-01                      4.33757696E-01                     -1.41566788E+02                      8.93299306E+01                     -5.90302847E+03                      3.72486464E+03
    2.9250                     -2.89814068E+06                      6.29216731E-10                      8.78289549E+06                      2.18658945E-08                      5.55223361E+07                     -3.75645695E-08                     -8.89817044E-01                     -6.96026304E-01                     -5.54616187E-01                      4.40852730E-01                     -1.55792034E+02                      9.83061900E+01                     -5.87453119E+03                      3.70688260E+03
    2.9500                     -2.89395510E+06                      9.73911706E-10                      8.78063543E+06                      3.21328554E-08                      5.54045650E+07                     -3.83521340E-08                     -9.04137806E-01                     -6.85337714E-01                     -5.46099182E-01                      4.47947832E-01                     -1.70698331E+02                      1.07712199E+02                     -5.84603365E+03                      3.68890039E+03
    2.9750                     -2.88993106E+06                      9.13359015E-10                      8.77833786E+06                      4.09365770E-08                      5.52883191E+07                     -3.69660899E-08                     -9.18458431E-01                     -6.74649226E-01                     -5.37582257E-01                      4.55042866E-01                     -1.86285396E+02                      1.17547779E+02                     -5.81753637E+03                      3.67091835E+03
    3.0000                     -2.88607394E+06                      7.01695646E-10                      8.77600402E+06                      3.17139197E-08                      5.51737053E+07                     -3.78481968E-08                     -9.32779193E-01                     -6.63960636E-01                     -5.29065251E-01                      4.62137967E-01                     -2.02553526E+02                      1.27813117E+02                     -5.78903883E+03                      3.65293614E+03
    3.0250                     -2.87503932E+06                      8.66657007E-10                      8.77395002E+06                      3.09775295E-08                      5.49209269E+07                     -3.72011449E-08                     -9.44803141E-01                     -6.51637144E-01                     -5.19245489E-01                      4.68095138E-01                     -2.18465403E+02                      1.37853656E+02                     -5.74628661E+03                      3.62595910E+03
    3.0500                     -2.86415399E+06                      8.59907848E-10                      8.77186552E+06                      4.17119984E-08                      5.46695810E+07                     -4.06253807E-08                     -9.56826974E-01                     -6.39313769E-01                     -5.09425820E-01                      4.74052251E-01                     -2.34978704E+02                      1.48273699E+02                     -5.70353480E+03                      3.59898232E+03
    3.0750                     -2.85342604E+06                      5.64625386E-10                      8.76975324E+06                      2.00852008E-08                      5.44197756E+07                     -3.91171470E-08                     -9.68850922E-01                     -6.26990277E-01                     -4.99606057E-01                      4.80009421E-01                     -2.52093743E+02                      1.59073444E+02                     -5.66078259E+03                      3.57200529E+03
    3.1000                     -2.84286727E+06                      9.18969761E-10                      8.76761742E+06                      2.49927335E-08                      5.41716293E+07                     -3.74054086E-08                     -9.80874755E-01                     -6.14666902E-01                     -4.89786388E-01                      4.85966535E-01                     -2.69810195E+02                      1.70252687E+02                     -5.61803078E+03                      3.54502851E+03
    3.1250                     -2.83248906E+06                      8.58173125E-10                      8.76546229E+06                      3.00503198E-08                      5.39252456E+07                     -3.74058423E-08                     -9.92898703E-01                     -6.02343410E-01                     -4.79966626E-01                      4.91923705E-01                     -2.88128397E+02                      1.81811639E+02                     -5.57527856E+03                      3.51805147E+03
    3.1500                     -2.82229772E+06                      1.08666873E-09                      8.76328990E+06                      3.23132666E-08                      5.36807316E+07                     -3.73919645E-08                     -1.00492265E+00                     -5.90019918E-01                     -4.70146863E-01                      4.97880875E-01                     -3.07048184E+02                      1.93750196E+02                     -5.53252635E+03                      3.49107443E+03
    3.1750                     -2.81229927E+06                      8.83272405E-10                      8.76110225E+06                      2.56970313E-08                      5.34381923E+07                     -3.70437188E-08                     -1.01694648E+00                     -5.77696544E-01                     -4.60327194E-01                      5.03837988E-01                     -3.26569365E+02                      2.06068239E+02                     -5.48977454E+03                      3.46409765E+03
    3.2000                     -2.80249994E+06                      7.58182579E-10                      8.75890148E+06                      2.78368127E-08                      5.31977256E+07                     -4.06597499E-08                     -1.02897043E+00                     -5.65373052E-01                     -4.50507431E-01                      5.09795159E-01                     -3.46692314E+02                      2.18766002E+02                     -5.44702233E+03                      3.43712062E+03
    3.2250                     -2.79290593E+06                      5.87420737E-10                      8.75668967E+06                      3.68686505E-08                      5.29594392E+07                     -3.82623620E-08                     -1.04099426E+00                     -5.53049677E-01                     -4.40687762E-01                      5.15752272E-01                     -3.67416646E+02                      2.31843244E+02                     -5.40427052E+03                      3.41014384E+03
    3.2500                     -2.78352326E+06                      6.26967011E-10                      8.75446888E+06                      3.30305748E-08                      5.27234358E+07                     -3.93222781E-08                     -1.05301821E+00                     -5.40726185E-01                     -4.30868000E-01                      5.21709442E-01                     -3.88742757E+02                      2.45300215E+02                     -5.36151830E+03                      3.38316680E+03
    3.2750                     -2.76709878E+06                      9.22506971E-10                      8.75262513E+06                      3.57107225E-08                      5.23537518E+07                     -3.98652465E-08                     -1.06244929E+00                     -5.27071245E-01                     -4.19987300E-01                      5.26381987E-01                     -4.08705140E+02                      2.57896659E+02                     -5.30556426E+03                      3.34785929E+03
    3.3000                     -2.75086300E+06                      6.59005185E-10                      8.75077893E+06                      2.54472311E-08                      5.19861265E+07                     -3.80819508E-08                     -1.07188027E+00                     -5.13416436E-01                     -4.09106704E-01                      5.31054488E-01                     -4.29167118E+02                      2.70808354E+02                     -5.24961074E+03                      3.31255211E+03
    3.3250                     -2.73481994E+06                      7.96427811E-10                      8.74893088E+06                      3.33645090E-08                      5.16206790E+07                     -3.94398056E-08                     -1.08131135E+00                     -4.99761496E-01                     -3.98226005E-01                      5.35727033E-01                     -4.50129082E+02                      2.84035544E+02                     -5.19365670E+03                      3.27724460E+03
    3.3500                     -2.71897955E+06                      7.00408156E-10                      8.74708122E+06                      2.78003835E-08                      5.12577892E+07                     -3.78985038E-08                     -1.09074234E+00                     -4.86106686E-01                     -3.87345409E-01                      5.40399534E-01                     -4.71590633E+02                      2.97577978E+02                     -5.13770319E+03                      3.24193743E+03
    3.3750                     -2.70336029E+06                      7.60134143E-10                      8.74523065E+06                      3.16349897E-08                      5.08981825E+07                     -3.86431338E-08                     -1.10017341E+00                     -4.72451746E-01                     -3.76464710E-01                      5.45072079E-01                     -4.93552179E+02                      3.11435913E+02                     -5.08174914E+03                      3.20662992E+03
    3.4000                     -2.68796603E+06                      8.69963823E-10                      8.74338017E+06                      3.19385663E-08                      5.05419954E+07                     -3.81435335E-08                     -1.10960449E+00                     -4.58796807E-01                     -3.65584010E-01                      5.49744624E-01                     -5.16013519E+02                      3.25609223E+02                     -5.02579509E+03                      3.17132240E+03
    3.4250                     -2.67279935E+06                      1.06994491E-09                      8.74153087E+06                      4.30512049E-08                      5.01893099E+07                     -4.05994682E-08                     -1.11903548E+00                     -4.45141997E-01                     -3.54703414E-01                      5.54417124E-01                     -5.38974431E+02                      3.40097767E+02                     -4.96984158E+03                      3.13601523E+03
    3.4500                     -2.65786180E+06                      8.64380182E-10                      8.73968372E+06                      2.52009004E-08                      4.98401740E+07                     -3.85717933E-08                     -1.12846655E+00                     -4.31487057E-01                     -3.43822715E-01                      5.59089670E-01                     -5.62435352E+02                      3.54901822E+02                     -4.91388753E+03                      3.10070772E+03
    3.4750                     -2.64315509E+06                      7.16664412E-10                      8.73783976E+06                      3.39803359E-08                      4.94946336E+07                     -3.66755237E-08                     -1.13789754E+00                     -4.17832248E-01                     -3.32942119E-01                      5.63762170E-01                     -5.86395836E+02                      3.70021105E+02                     -4.85793402E+03                      3.06540054E+03
    3.5000                     -2.62868005E+06                      6.27576875E-10                      8.73599983E+06                      3.62528236E-08                      4.91527102E+07                     -4.05031911E-08                     -1.14732862E+00                     -4.04177308E-01                     -3.22061419E-01                      5.68434715E-01                     -6.10856340E+02                      3.85455905E+02                     -4.80197998E+03                      3.03009303E+03
    3.5250                     -2.60736643E+06                      9.60128786E-10                      8.73460659E+06                      4.70185175E-08                      4.86846260E+07                     -3.80642783E-08                     -1.15393455E+00                     -3.89527125E-01                     -3.10387692E-01                      5.71707577E-01                     -6.32751205E+02                      3.99271764E+02                     -4.73420178E+03                      2.98732437E+03
    3.5500                     -2.58624576E+06                      9.59668000E-10                      8.73322078E+06                      3.85617406E-08                      4.82196659E+07                     -3.89896448E-08                     -1.16054043E+00                     -3.74877081E-01                     -2.98714076E-01                      5.74980408E-01                     -6.55031365E+02                      4.13330747E+02                     -4.66642424E+03                      2.94455613E+03
    3.5750                     -2.56531827E+06                      7.35885284E-10                      8.73184300E+06                      2.54975381E-08                      4.77578345E+07                     -3.76056608E-08                     -1.16714636E+00                     -3.60226898E-01                     -2.87040348E-01                      5.78253269E-01                     -6.77697245E+02                      4.27633124E+02                     -4.59864604E+03                      2.90178747E+03
    3.6000                     -2.54458486E+06                      9.53023874E-10                      8.73047372E+06                      3.19455052E-08                      4.72991494E+07                     -3.77583164E-08                     -1.17375224E+00                     -3.45576855E-01                     -2.75366732E-01                      5.81526100E-01                     -7.00748412E+02                      4.42178620E+02                     -4.53086850E+03                      2.85901922E+03
    3.6250                     -2.52404556E+06                      6.22257508E-10                      8.72911334E+06                      2.62131115E-08                      4.68436098E+07                     -3.78773618E-08                     -1.18035817E+00                     -3.30926672E-01                     -2.63693005E-01                      5.84798962E-01                     -7.24185307E+02                      4.56967514E+02                     -4.46309031E+03                      2.81625057E+03
    3.6500                     -2.50370101E+06                      7.18400989E-10                      8.72776236E+06                      2.87761655E-08                      4.63912281E+07                     -3.61042576E-08                     -1.18696411E+00                     -3.16276488E-01                     -2.52019277E-01                      5.88071824E-01                     -7.48007711E+02                      4.71999667E+02                     -4.39531211E+03                      2.77348191E+03
    3.6750                     -2.48355173E+06                      8.48998064E-10                      8.72642112E+06                      2.61523962E-08                      4.59420142E+07                     -3.76890359E-08                     -1.19356998E+00                     -3.01626445E-01                     -2.40345661E-01                      5.91344654E-01                     -7.72215392E+02                      4.87274934E+02                     -4.32753457E+03                      2.73071366E+03
    3.7000                     -2.46359766E+06                      7.70383242E-10                      8.72508994E+06                      3.14415681E-08                      4.54959643E+07                     -4.05854820E-08                     -1.20017592E+00                     -2.86976262E-01                     -2.28671934E-01                      5.94617516E-01                     -7.96808811E+02                      5.02793605E+02                     -4.25975637E+03                      2.68794501E+03
    3.7250                     -2.44383949E+06                      8.39975469E-10                      8.72376923E+06                      2.00418327E-08                      4.50530930E+07                     -3.99274797E-08                     -1.20678179E+00                     -2.72326218E-01                     -2.16998318E-01                      5.97890347E-01                     -8.21787499E+02                      5.18555384E+02                     -4.19197883E+03                      2.64517676E+03
    3.7500                     -2.42427712E+06                      8.56160574E-10                      8.72245927E+06                      4.07023893E-08                      4.46133957E+07                     -3.89007403E-08                     -1.21338773E+00                     -2.57676035E-01                     -2.05324590E-01                      6.01163208E-01                     -8.47151933E+02                      5.34560573E+02                     -4.12420063E+03                      2.60240810E+03
    3.7750                     -2.39812877E+06                      5.86770216E-10                      8.72164125E+06                      3.33072632E-08                      4.40553692E+07                     -3.77782658E-08                     -1.21700587E+00                     -2.42391406E-01                     -1.93145304E-01                      6.02955801E-01                     -8.68672062E+02                      5.48139970E+02                     -4.04626740E+03                      2.55323152E+03
    3.8000                     -2.37213366E+06                      6.90731652E-10                      8.72083508E+06                      3.50350478E-08                      4.34999401E+07                     -3.71478022E-08                     -1.22062399E+00                     -2.27106922E-01                     -1.80966134E-01                      6.04748377E-01                     -8.90461901E+02                      5.61889556E+02                     -3.96833490E+03                      2.50405541E+03
[...]
   11.5500                     -2.12884438E+06                      9.75185644E-10                      8.87719920E+06                      2.96929668E-08                      4.20483374E+07                     -3.99107288E-08                      9.35228930E-02                     -9.86164490E-01                     -7.85807719E-01                     -4.63351712E-02                      3.93109324E+02                     -2.48055558E+02                     -5.33681816E+03                      3.36758078E+03
   11.5750                     -2.16264561E+06                      8.88178420E-10                      8.87559751E+06                      3.08613031E-08                      4.26537824E+07                     -3.99749678E-08                      7.38119616E-02                     -9.86591300E-01                     -7.86147812E-01                     -3.65695402E-02                      3.72045141E+02                     -2.34763867E+02                     -5.38268513E+03                      3.39652326E+03
   11.6000                     -2.19625177E+06                      7.75204553E-10                      8.87400368E+06                      4.29540604E-08                      4.32568175E+07                     -3.61533720E-08                      5.41002783E-02                     -9.87018127E-01                     -7.86487918E-01                     -2.68035367E-02                      3.51560181E+02                     -2.21837671E+02                     -5.42855385E+03                      3.42546684E+03
   11.6250                     -2.22966182E+06                      8.41882987E-10                      8.87241707E+06                      2.48600272E-08                      4.38574261E+07                     -3.80771803E-08                      3.43893468E-02                     -9.87444937E-01                     -7.86828011E-01                     -1.70379058E-02                      3.31656006E+02                     -2.09277956E+02                     -5.47442082E+03                      3.45440932E+03
   11.6500                     -2.26287844E+06                      6.71066935E-10                      8.87083667E+06                      3.17789718E-08                      4.44556512E+07                     -4.04884459E-08                      1.46784154E-02                     -9.87871748E-01                     -7.87168104E-01                     -7.27227479E-03                      3.12331823E+02                     -1.97084220E+02                     -5.52028779E+03                      3.48335179E+03
   11.6750                     -2.29590474E+06                      7.95967025E-10                      8.86926164E+06                      2.48843133E-08                      4.50515514E+07                     -3.81396303E-08                     -5.03326792E-03                     -9.88298574E-01                     -7.87508210E-01                      2.49372870E-03                      2.93586929E+02                     -1.85256022E+02                     -5.56615651E+03                      3.51229537E+03
   11.7000                     -2.32873977E+06                      8.61507046E-10                      8.86769095E+06                      3.33575702E-08                      4.56451003E+07                     -3.84744320E-08                     -2.47441993E-02                     -9.88725385E-01                     -7.87848303E-01                      1.22593597E-02                      2.75422753E+02                     -1.73794262E+02                     -5.61202348E+03                      3.54123785E+03
   11.7250                     -2.36138813E+06                      8.67199108E-10                      8.86612356E+06                      2.51861552E-08                      4.62363796E+07                     -3.82159582E-08                     -4.44558827E-02                     -9.89152212E-01                     -7.88188409E-01                      2.20253631E-02                      2.57837911E+02                     -1.62698066E+02                     -5.65789220E+03                      3.57018143E+03
   11.7500                     -2.39384930E+06                      7.56014175E-10                      8.86455845E+06                      3.40644700E-08                      4.68253719E+07                     -3.85958626E-08                     -6.41668141E-02                     -9.89579022E-01                     -7.88528502E-01                      3.17909941E-02                      2.40833742E+02                     -1.51968281E+02                     -5.70375917E+03                      3.59912390E+03
   11.7750                     -2.42066012E+06                      7.43003749E-10                      8.86309072E+06                      2.53266678E-08                      4.73043685E+07                     -4.01050720E-08                     -8.37197777E-02                     -9.87569220E-01                     -7.86927027E-01                      4.14783482E-02                      2.23266162E+02                     -1.40882978E+02                     -5.73558197E+03                      3.61920438E+03
   11.8000                     -2.44725057E+06                      9.84835043E-10                      8.86162146E+06                      3.08378843E-08                      4.77805453E+07                     -3.95257286E-08                     -1.03273487E-01                     -9.85559341E-01                     -7.85325491E-01                      5.11660719E-02                      2.06363173E+02                     -1.30217039E+02                     -5.76740598E+03                      3.63928562E+03
   11.8250                     -2.47362107E+06                      7.59863093E-10                      8.86014942E+06                      3.39881421E-08                      4.82538960E+07                     -3.91284227E-08                     -1.22826451E-01                     -9.83549539E-01                     -7.83724016E-01                      6.08534260E-02                      1.90126067E+02                     -1.19971277E+02                     -5.79922878E+03                      3.65936609E+03
   11.8500                     -2.49977662E+06                      6.74807432E-10                      8.85867327E+06                      3.62163944E-08                      4.87245026E+07                     -3.85941279E-08                     -1.42380160E-01                     -9.81539660E-01                     -7.82122480E-01                      7.05411497E-02                      1.74553603E+02                     -1.10144911E+02                     -5.83105279E+03                      3.67944733E+03
   11.8750                     -2.52571802E+06                      5.94034370E-10                      8.85719159E+06                      2.87779002E-08                      4.91923609E+07                     -3.78135565E-08                     -1.61933124E-01                     -9.79529858E-01                     -7.80521005E-01                      8.02285038E-02                      1.59646970E+02                     -1.00738690E+02                     -5.86287559E+03                      3.69952781E+03
   11.9000                     -2.55144971E+06                      8.18952111E-10                      8.85570297E+06                      3.83605127E-08                      4.96575388E+07                     -3.79800358E-08                     -1.81486088E-01                     -9.77520055E-01                     -7.78919531E-01                      8.99158579E-02                      1.45405562E+02                     -9.17522315E+01                     -5.89469838E+03                      3.71960828E+03
   11.9250                     -2.57697588E+06                      6.97955149E-10                      8.85420567E+06                      2.57152459E-08                      5.01200880E+07                     -3.80633025E-08                     -2.01039797E-01                     -9.75510177E-01                     -7.77317995E-01                      9.96035816E-02                      1.31828872E+02                     -8.31852170E+01                     -5.92652240E+03                      3.73968952E+03
   11.9500                     -2.60229851E+06                      1.06403601E-09                      8.85269837E+06                      2.71498622E-08                      5.05800289E+07                     -3.85837196E-08                     -2.20592761E-01                     -9.73500374E-01                     -7.75716520E-01                      1.09290936E-01                      1.18917938E+02                     -7.50382999E+01                     -5.95834519E+03                      3.75977000E+03
   11.9750                     -2.62742325E+06                      8.39009851E-10                      8.85117921E+06                      4.26392081E-08                      5.10374370E+07                     -3.83790222E-08                     -2.40146470E-01                     -9.71490496E-01                     -7.74114984E-01                      1.18978659E-01                      1.06671773E+02                     -6.73108586E+01                     -5.99016920E+03                      3.77985124E+03
   12.0000                     -2.65235253E+06                      8.69204882E-10                      8.84964674E+06                      3.55285766E-08                      5.14923351E+07                     -4.03566069E-08                     -2.59699434E-01                     -9.69480693E-01                     -7.72513509E-01                      1.28666013E-01                      9.50913120E+01                     -6.00034826E+01                     -6.02199200E+03                      3.79993171E+03
   12.0250                     -2.67080646E+06                      7.35305913E-10                      8.84822356E+06                      3.87716421E-08                      5.18224955E+07                     -3.99263955E-08                     -2.78612927E-01                     -9.65083726E-01                     -7.69009858E-01                      1.38036552E-01                      8.37360633E+01                     -5.28382174E+01                     -6.03898673E+03                      3.81065554E+03
   12.0500                     -2.68904231E+06                      6.10785294E-10                      8.84678174E+06                      3.91506792E-08                      5.21497106E+07                     -3.66061348E-08                     -2.97527142E-01                     -9.60686591E-01                     -7.65506074E-01                      1.47407448E-01                      7.31021909E+01                     -4.61281472E+01                     -6.05598211E+03                      3.82137978E+03
   12.0750                     -2.70706344E+06                      6.78656350E-10                      8.84531953E+06                      3.59709311E-08                      5.24740081E+07                     -3.83391235E-08                     -3.16440635E-01                     -9.56289623E-01                     -7.62002423E-01                      1.56777987E-01                      6.31905061E+01                     -3.98737839E+01                     -6.07297684E+03                      3.83210361E+03
   12.1000                     -2.72487655E+06                      7.72494048E-10                      8.84383512E+06                      3.99087534E-08                      5.27954788E+07                     -3.86999460E-08                     -3.35354849E-01                     -9.51892488E-01                     -7.58498639E-01                      1.66148883E-01                      5.40002526E+01                     -3.40746504E+01                     -6.08997222E+03                      3.84282785E+03
   12.1250                     -2.74248554E+06                      7.96454916E-10                      8.84232673E+06                      2.62356629E-08                      5.31141558E+07                     -3.85403515E-08                     -3.54268342E-01                     -9.47495520E-01                     -7.54994988E-01                      1.75519422E-01                      4.55321317E+01                     -2.87311891E+01                     -6.10696695E+03                      3.85355168E+03
   12.1500                     -2.75989692E+06                      8.28872561E-10                      8.84079265E+06                      2.74707860E-08                      5.34301244E+07                     -3.74058423E-08                     -3.73181835E-01                     -9.43098553E-01                     -7.51491338E-01                      1.84889960E-01                      3.77857790E+01                     -2.38431701E+01                     -6.12396168E+03                      3.86427550E+03
   12.1750                     -2.77711703E+06                      8.36895657E-10                      8.83923099E+06                      1.74544927E-08                      5.37434610E+07                     -3.75758452E-08                     -3.92096050E-01                     -9.38701417E-01                     -7.47987554E-01                      1.94260856E-01                      3.07609403E+01                     -1.94104330E+01                     -6.14095706E+03                      3.87499974E+03
   12.2000                     -2.79415076E+06                      8.36678817E-10                      8.83764026E+06                      4.63983539E-08                      5.40542189E+07                     -3.99749678E-08                     -4.11009543E-01                     -9.34304450E-01                     -7.44483903E-01                      2.03631395E-01                      2.44581515E+01                     -1.54333160E+01                     -6.15795179E+03                      3.88572357E+03
   12.2250                     -2.81100539E+06                      6.66675916E-10                      8.83601851E+06                      3.83058689E-08                      5.43624895E+07                     -3.69582837E-08                     -4.29923757E-01                     -9.29907314E-01                     -7.40980119E-01                      2.13002291E-01                      1.88769317E+01                     -1.19115156E+01                     -6.17494717E+03                      3.89644781E+03
   12.2500                     -2.82768618E+06                      9.65319404E-10                      8.83436445E+06                      3.24216868E-08                      5.46683344E+07                     -3.94181215E-08                     -4.48837250E-01                     -9.25510347E-01                     -7.37476468E-01                      2.22372830E-01                      1.40177069E+01                     -8.84530049E+00                     -6.19194190E+03                      3.90717164E+03
   12.2750                     -2.83733940E+06                      8.11904797E-10                      8.83283082E+06                      3.08465579E-08                      5.48391422E+07                     -3.84831056E-08                     -4.66645574E-01                     -9.18834502E-01                     -7.32156948E-01                      2.31195825E-01                      9.82238014E+00                     -6.19801119E+00                     -6.19369036E+03                      3.90827494E+03
   12.3000                     -2.84680719E+06                      9.11055086E-10                      8.83126055E+06                      2.20645203E-08                      5.50072298E+07                     -3.89636240E-08                     -4.84454577E-01                     -9.12158403E-01                     -7.26837225E-01                      2.40019156E-01                      6.37102653E+00                     -4.02017567E+00                     -6.19543889E+03                      3.90937828E+03
   12.3250                     -2.85609512E+06                      8.41286676E-10                      8.82965219E+06                      2.19725800E-08                      5.51726605E+07                     -3.96297578E-08                     -5.02262901E-01                     -9.05482558E-01                     -7.21517705E-01                      2.48842151E-01                      3.66390934E+00                     -2.31196011E+00                     -6.19718736E+03                      3.91048158E+03
   12.3500                     -2.86521080E+06                      6.91449936E-10                      8.82800456E+06                      3.24520445E-08                      5.53355435E+07                     -3.87936211E-08                     -5.20071903E-01                     -8.98806458E-01                     -7.16197982E-01                      2.57665483E-01                      1.70082203E+00                     -1.07323417E+00                     -6.19893589E+03                      3.91158492E+03
   12.3750                     -2.87415996E+06                      5.78042388E-10                      8.82631640E+06                      3.41251853E-08                      5.54959485E+07                     -3.94892452E-08                     -5.37880227E-01                     -8.92130613E-01                     -7.10878462E-01                      2.66488478E-01                      4.81914371E-01                     -3.04092350E-01                     -6.20068436E+03                      3.91268821E+03
   12.4000                     -2.88294983E+06                      1.04105093E-09                      8.82458667E+06                      2.23377393E-08                      5.56539795E+07                     -3.80407511E-08                     -5.55688551E-01                     -8.85454768E-01                     -7.05558941E-01                      2.75311472E-01                      7.09728326E-03                     -4.47845027E-03                     -6.20243282E+03                      3.91379151E+03
   12.4250                     -2.89158718E+06                      9.57133678E-10                      8.82281419E+06                      2.62989803E-08                      5.58097312E+07                     -3.86392307E-08                     -5.73497553E-01                     -8.78778669E-01                     -7.00239218E-01                      2.84134804E-01                     -2.76395234E-01                      1.74407906E-01                     -6.20418136E+03                      3.91489485E+03
   12.4500                     -2.90007808E+06                      7.33896451E-10                      8.82099829E+06                      2.47758931E-08                      5.59632912E+07                     -4.06263564E-08                     -5.91305877E-01                     -8.72102824E-01                     -6.94919698E-01                      2.92957799E-01                     -1.28978768E+00                      8.13867752E-01                     -6.20592982E+03                      3.91599815E+03
   12.4750                     -2.90842974E+06                      1.01221115E-09                      8.81913808E+06                      4.12071939E-08                      5.61147698E+07                     -4.09759032E-08                     -6.09114880E-01                     -8.65426725E-01                     -6.89599975E-01                      3.01781130E-01                     -3.04735193E+00                      1.92290678E+00                     -6.20767836E+03                      3.91710149E+03
