
 **************************************************************************************************
 HydroDyn Driver

 Copyright (C) 2021 National Renewable Energy Laboratory
 Copyright (C) 2021 Envision Energy USA LTD

 This program is licensed under Apache License Version 2.0 and comes with ABSOLUTELY NO WARRANTY.
 See the "LICENSE" file distributed with this software for details.
 **************************************************************************************************

  Running HydroDyn Driver a part of OpenFAST - v2.5.0-480-g1082ba16-dirty
  linked with NWTC Subroutine Library

 Opening HydroDyn Driver input file:
 /Users/aplatt/software-development/GitHub/openfast-4/build-DP-gcc10/reg_tests/modules/hydrodyn/hd_
 OC3tripod_offshore_fixedbottom_wavesirr/hd_driver.inp
 Running HydroDyn.
  WARNING:  The requested output channel is invalid: M1N1FAxi
  WARNING:  The requested output channel is invalid: M1N1FAzi
  WARNING:   The random number generator in use differs from the original code provided by NREL.
  This pRNG uses 8 seeds instead of the 2 in the input file.
  Generating incident wave kinematics and current time history.
  Time: 0 of 12.5 seconds.
                                                                                                   Time: 1 of 12.5 seconds.  Estimated final completion at 09:51:10.                                                                                                                                   Time: 2 of 12.5 seconds.  Estimated final completion at 09:51:10.                                                                                                                                   Time: 3 of 12.5 seconds.  Estimated final completion at 09:51:10.                                                                                                                                   Time: 4 of 12.5 seconds.  Estimated final completion at 09:51:10.                                                                                                                                   Time: 5 of 12.5 seconds.  Estimated final completion at 09:51:10.                                                                                                                                   Time: 6 of 12.5 seconds.  Estimated final completion at 09:51:10.                                                                                                                                   Time: 7 of 12.5 seconds.  Estimated final completion at 09:51:10.                                                                                                                                   Time: 8 of 12.5 seconds.  Estimated final completion at 09:51:10.                                                                                                                                   Time: 9 of 12.5 seconds.  Estimated final completion at 09:51:10.                                                                                                                                   Time: 10 of 12.5 seconds.  Estimated final completion at 09:51:10.                                                                                                                                  Time: 11 of 12.5 seconds.  Estimated final completion at 09:51:10.                                                                                                                                  Time: 12 of 12.5 seconds.  Estimated final completion at 09:51:10.                                                                                                                                 
  Total Real Time:       4.314 seconds
  Total CPU Time:        4.2399 seconds
  Simulation CPU Time:   1.6425 seconds
  Simulated Time:        12.475 seconds
  Time Ratio (Sim/CPU):  7.5953

  HydroDyn Driver terminated normally.

