
 **************************************************************************************************
 OpenFAST

 Copyright (C) 2021 National Renewable Energy Laboratory
 Copyright (C) 2021 Envision Energy USA LTD

 This program is licensed under Apache License Version 2.0 and comes with ABSOLUTELY NO WARRANTY.
 See the "LICENSE" file distributed with this software for details.
 **************************************************************************************************

 OpenFAST-v2.5.0-480-g1082ba16-dirty
 Compile Info:
  - Compiler: GCC version 10.2.0
  - Architecture: 64 bit
  - Precision: double
  - Date: Jan 22 2021
  - Time: 15:11:08
 Execution Info:
  - Date: 01/28/2021
  - Time: 09:48:04-0700

 OpenFAST input file heading:
     FAST Certification Test #25: NREL 5.0 MW Baseline Wind Turbine with OC4-DeepCwind semi
     configuration, for use in offshore analysis

 Running ElastoDyn.
 Nodal outputs section of ElastoDyn input file not found or improperly formatted.
 Running AeroDyn.
 AD15 Nodal Outputs: Nodal output section of AeroDyn input file not found or improperly formatted.
 Skipping nodal outputs.
 Warning: Turning off Unsteady Aerodynamics because C_nalpha is 0. (node 1, blade 1)
 Warning: Turning off Unsteady Aerodynamics because C_nalpha is 0. (node 2, blade 1)
 Warning: Turning off Unsteady Aerodynamics because C_nalpha is 0. (node 3, blade 1)
 Warning: Turning off Unsteady Aerodynamics because C_nalpha is 0. (node 4, blade 1)
 Warning: Turning off Unsteady Aerodynamics because C_nalpha is 0. (node 1, blade 2)
 Warning: Turning off Unsteady Aerodynamics because C_nalpha is 0. (node 2, blade 2)
 Warning: Turning off Unsteady Aerodynamics because C_nalpha is 0. (node 3, blade 2)
 Warning: Turning off Unsteady Aerodynamics because C_nalpha is 0. (node 4, blade 2)
 Warning: Turning off Unsteady Aerodynamics because C_nalpha is 0. (node 1, blade 3)
 Warning: Turning off Unsteady Aerodynamics because C_nalpha is 0. (node 2, blade 3)
 Warning: Turning off Unsteady Aerodynamics because C_nalpha is 0. (node 3, blade 3)
 Warning: Turning off Unsteady Aerodynamics because C_nalpha is 0. (node 4, blade 3)
 Running InflowWind.
 Running ServoDyn.
 Running ServoDyn Interface for Bladed Controllers (using GNU Fortran for Linux, ).
 Using legacy Bladed DLL interface.
 Running HydroDyn.
  Generating incident wave kinematics and current time history.
  Reading in WAMIT output with root name
  "/Users/aplatt/software-development/GitHub/openfast-4/build-DP-gcc10/reg_tests/glue-codes/openfas
  t/5MW_OC4Semi_WSt_WavesWN/../5MW_Baseline/HydroData/marin_semi".
  Computing radiation impulse response functions and wave diffraction forces.
  Calculating second order difference-frequency force using the full quadratic transfer function.
  Calculating second order sum-frequency force using the full quadratic transfer function.
 Running MoorDyn (v1.01.02F, 8-Apr-2016).
   MD_Init: Opening MoorDyn input file:
   /Users/aplatt/software-development/GitHub/openfast-4/build-DP-gcc10/reg_tests/glue-codes/openfas
   t/5MW_OC4Semi_WSt_WavesWN/NRELOffshrBsline5MW_OC4DeepCwindSemi_MoorDyn.dat
   Creating mooring system.   3 fairleads, 3 anchors, 0 connects.
    Finalizing ICs using dynamic relaxation.

   t=2  FairTen 1: 1.03820E+06, 0, 0                                                                 t=4  FairTen 1: 9.95272E+05, 1.03820E+06, 0                                                       t=6  FairTen 1: 9.94915E+05, 9.95272E+05, 1.03820E+06                                             t=8  FairTen 1: 1.00676E+06, 9.94915E+05, 9.95272E+05                                             t=10  FairTen 1: 9.92989E+05, 1.00676E+06, 9.94915E+05                                            t=12  FairTen 1: 1.00241E+06, 9.92989E+05, 1.00676E+06                                            t=14  FairTen 1: 1.00567E+06, 1.00241E+06, 9.92989E+05                                            t=16  FairTen 1: 9.94751E+05, 1.00567E+06, 1.00241E+06                                            t=18  FairTen 1: 9.99281E+05, 9.94751E+05, 1.00567E+06                                             Fairlead tensions converged to 1% after 18 seconds.

 FAST_InitializeAll:HydroDyn_Init:Waves_Init:VariousWaves_Init: The random number generator in use
 differs from the original code provided by NREL. This pRNG uses 8 seeds instead of the 2 in the
 HydroDyn input file.

  Time: 0 of 60 seconds.

 FAST_Solution0:CalcOutputs_And_SolveForInputs:SolveOption2:SrvD_CalcOutput:DLL_controller_call:Run
 ning with torque and pitch control of the NREL offshore 5MW baseline wind turbine from DISCON.dll
 as written by J. Jonkman of NREL/NWTC for use in the IEA Annex XXIII OC3 studies.  Includes
 modifications for the Hywind spar.

                                                                                                   Time: 1 of 60 seconds.  Estimated final completion at 09:55:37.                                                                                                                                     Time: 2 of 60 seconds.  Estimated final completion at 09:55:38.                                                                                                                                     Time: 3 of 60 seconds.  Estimated final completion at 09:56:23.                                                                                                                                     Time: 4 of 60 seconds.  Estimated final completion at 09:55:43.                                                                                                                                     Time: 5 of 60 seconds.  Estimated final completion at 09:55:37.                                                                                                                                     Time: 6 of 60 seconds.  Estimated final completion at 09:55:13.                                                                                                                                     Time: 7 of 60 seconds.  Estimated final completion at 09:54:58.                                                                                                                                     Time: 8 of 60 seconds.  Estimated final completion at 09:54:56.                                                                                                                                     Time: 9 of 60 seconds.  Estimated final completion at 09:55:53.                                                                                                                                     Time: 10 of 60 seconds.  Estimated final completion at 09:55:09.                                                                                                                                    Time: 11 of 60 seconds.  Estimated final completion at 09:55:13.                                                                                                                                    Time: 12 of 60 seconds.  Estimated final completion at 09:55:21.                                                                                                                                    Time: 13 of 60 seconds.  Estimated final completion at 09:56:24.                                                                                                                                    Time: 14 of 60 seconds.  Estimated final completion at 09:56:14.                                                                                                                                    Time: 15 of 60 seconds.  Estimated final completion at 09:56:09.                                                                                                                                    Time: 16 of 60 seconds.  Estimated final completion at 09:56:20.                                                                                                                                    Time: 17 of 60 seconds.  Estimated final completion at 09:56:18.                                                                                                                                    Time: 18 of 60 seconds.  Estimated final completion at 09:55:37.                                                                                                                                    Time: 19 of 60 seconds.  Estimated final completion at 09:55:08.                                                                                                                                    Time: 20 of 60 seconds.  Estimated final completion at 09:54:32.                                                                                                                                    Time: 21 of 60 seconds.  Estimated final completion at 09:55:58.                                                                                                                                    Time: 22 of 60 seconds.  Estimated final completion at 09:55:21.                                                                                                                                    Time: 23 of 60 seconds.  Estimated final completion at 09:54:33.                                                                                                                                    Time: 24 of 60 seconds.  Estimated final completion at 09:54:31.                                                                                                                                    Time: 25 of 60 seconds.  Estimated final completion at 09:54:35.                                                                                                                                    Time: 26 of 60 seconds.  Estimated final completion at 09:54:23.                                                                                                                                    Time: 27 of 60 seconds.  Estimated final completion at 09:54:21.                                                                                                                                    Time: 28 of 60 seconds.  Estimated final completion at 09:54:31.                                                                                                                                    Time: 29 of 60 seconds.  Estimated final completion at 09:54:45.                                                                                                                                    Time: 30 of 60 seconds.  Estimated final completion at 09:55:04.                                                                                                                                    Time: 31 of 60 seconds.  Estimated final completion at 09:55:04.                                                                                                                                    Time: 32 of 60 seconds.  Estimated final completion at 09:55:01.                                                                                                                                    Time: 33 of 60 seconds.  Estimated final completion at 09:54:52.                                                                                                                                    Time: 34 of 60 seconds.  Estimated final completion at 09:54:37.                                                                                                                                    Time: 35 of 60 seconds.  Estimated final completion at 09:54:33.                                                                                                                                    Time: 36 of 60 seconds.  Estimated final completion at 09:54:27.                                                                                                                                    Time: 37 of 60 seconds.  Estimated final completion at 09:54:27.                                                                                                                                    Time: 38 of 60 seconds.  Estimated final completion at 09:54:25.                                                                                                                                    Time: 39 of 60 seconds.  Estimated final completion at 09:54:22.                                                                                                                                    Time: 40 of 60 seconds.  Estimated final completion at 09:54:18.                                                                                                                                    Time: 41 of 60 seconds.  Estimated final completion at 09:54:20.                                                                                                                                    Time: 42 of 60 seconds.  Estimated final completion at 09:54:22.                                                                                                                                    Time: 43 of 60 seconds.  Estimated final completion at 09:54:25.                                                                                                                                    Time: 44 of 60 seconds.  Estimated final completion at 09:54:28.                                                                                                                                    Time: 45 of 60 seconds.  Estimated final completion at 09:54:30.                                                                                                                                    Time: 46 of 60 seconds.  Estimated final completion at 09:54:34.                                                                                                                                    Time: 47 of 60 seconds.  Estimated final completion at 09:54:36.                                                                                                                                    Time: 48 of 60 seconds.  Estimated final completion at 09:54:35.                                                                                                                                    Time: 49 of 60 seconds.  Estimated final completion at 09:54:32.                                                                                                                                    Time: 50 of 60 seconds.  Estimated final completion at 09:54:29.                                                                                                                                    Time: 51 of 60 seconds.  Estimated final completion at 09:54:29.                                                                                                                                    Time: 52 of 60 seconds.  Estimated final completion at 09:54:30.                                                                                                                                    Time: 53 of 60 seconds.  Estimated final completion at 09:54:30.                                                                                                                                    Time: 54 of 60 seconds.  Estimated final completion at 09:54:30.                                                                                                                                    Time: 55 of 60 seconds.  Estimated final completion at 09:54:31.                                                                                                                                    Time: 56 of 60 seconds.  Estimated final completion at 09:54:33.                                                                                                                                    Time: 57 of 60 seconds.  Estimated final completion at 09:54:34.                                                                                                                                    Time: 58 of 60 seconds.  Estimated final completion at 09:54:34.                                                                                                                                    Time: 59 of 60 seconds.  Estimated final completion at 09:54:33.                                                                                                                                    Time: 60 of 60 seconds.  Estimated final completion at 09:54:33.                                                                                                                                   
  Total Real Time:       6.4675 minutes
  Total CPU Time:        6.3706 minutes
  Simulation CPU Time:   5.329 minutes
  Simulated Time:        1 minutes
  Time Ratio (Sim/CPU):  0.18765

  OpenFAST terminated normally.

