
This summary file was generated by HydroDyn  on 11-Nov-2020 at 18:56:29.

WAMIT Model
-----------
  Displaced volume (m^3)                 :     1.217960E+04
  X-offset of the center of buoyancy (m) :     0.000000E+00
  Y-offset of the center of buoyancy (m) :     0.000000E+00


  Buoyancy loads from members modelled with WAMIT, summed about ( 0.0, 0.0, 0.0 )
                                BuoyFxi               BuoyFyi               BuoyFzi               BuoyMxi               BuoyMyi               BuoyMzi 
                                  (N)                   (N)                   (N)                  (N-m)                 (N-m)                 (N-m)  
  External:                 0.000000E+00          0.000000E+00          1.224271E+08          0.000000E+00         -0.000000E+00          0.000000E+00



Volume Calculations(m^3)
------------------------
  Structure Volume     :    0.00000E+00
  Submerged Volume     :    0.00000E+00
  Marine Growth Volume :    0.00000E+00
  Ballasted Volume     :    0.00000E+00
              NOTE: Structure, Submerged and Marine Growth volumes are based on members not modelled with WAMIT
                      Ballasted volume is computed from all members which are marked as filled in the HydroDyn input file, regardless of PropPot flag



Buoyancy loads summed about ( 0.0, 0.0, 0.0 )
---------------------------------------------
                                BuoyFxi               BuoyFyi               BuoyFzi               BuoyMxi               BuoyMyi               BuoyMzi 
                                  (N)                   (N)                   (N)                  (N-m)                 (N-m)                 (N-m)  
 External:                  0.000000E+00          0.000000E+00          0.000000E+00          0.000000E+00          0.000000E+00          0.000000E+00
 Internal:                  0.000000E+00          0.000000E+00          0.000000E+00          0.000000E+00          0.000000E+00          0.000000E+00
 Total   :                  0.000000E+00          0.000000E+00          0.000000E+00          0.000000E+00          0.000000E+00          0.000000E+00
              NOTE: External buoyancy is based on members not modelled with WAMIT
                      Internal buoyancy is computed from all members which are marked as filled in the HydroDyn input file, regardless of PropPot flag
                    Total buoyancy does not include WAMIT-modelled buoyancy contribution



Weight loads about ( 0.0, 0.0, 0.0 )
------------------------------------
                                 MGFxi                 MGFyi                 MGFzi                 MGMxi                 MGMyi                 MGMzi  
                                  (N)                   (N)                   (N)                  (N-m)                 (N-m)                 (N-m)  
 Marine Growth:             0.000000E+00          0.000000E+00          0.000000E+00          0.000000E+00          0.000000E+00          0.000000E+00



Nodes


   i    JointIndx   JointOvrlp  InpMbrIndx     Nxi         Nyi         Nzi      InpMbrDist       R         dRdZ         t          tMG        MGDens      PropPot   FilledFlag   FillDens   FillFSLoc       Cd          Ca          Cp         AxCa        AxCp        JAxCd       JAxCa       JAxCp    NConn  Connection List
  (-)      (-)         (-)         (-)         (m)         (m)         (m)          (-)         (m)         (-)        (m)         (m)       (kg/m^3)      (-)         (-)       (kg/m^3)       (-)         (-)         (-)         (-)         (-)         (-)         (-)         (-)         (-)      (-)                  
     1           1           0           1      0.0000      0.0000    -47.8900      0.0000   9.000E+00   0.000E+00   1.000E-03   0.000E+00   0.000E+00           T           F   0.000E+00   0.000E+00   6.000E-01   0.000E+00   1.000E+00   1.000E+00   1.000E+00   0.000E+00   0.000E+00   1.000E+00      1     1
     2           2           0           1      0.0000      0.0000      0.0000      1.0000   9.000E+00   0.000E+00   1.000E-03   0.000E+00   0.000E+00           T           F   0.000E+00   0.000E+00   6.000E-01   0.000E+00   1.000E+00   1.000E+00   1.000E+00   0.000E+00   0.000E+00   1.000E+00      1   100
     3          -1           0           1      0.0000      0.0000    -47.4111      0.0100   9.000E+00   0.000E+00   1.000E-03   0.000E+00   0.000E+00           T           F   0.000E+00   0.000E+00   6.000E-01   0.000E+00   1.000E+00   1.000E+00   1.000E+00   0.000E+00   0.000E+00   0.000E+00      2     1     2
     4          -1           0           1      0.0000      0.0000    -46.9322      0.0200   9.000E+00   0.000E+00   1.000E-03   0.000E+00   0.000E+00           T           F   0.000E+00   0.000E+00   6.000E-01   0.000E+00   1.000E+00   1.000E+00   1.000E+00   0.000E+00   0.000E+00   0.000E+00      2     2     3
     5          -1           0           1      0.0000      0.0000    -46.4533      0.0300   9.000E+00   0.000E+00   1.000E-03   0.000E+00   0.000E+00           T           F   0.000E+00   0.000E+00   6.000E-01   0.000E+00   1.000E+00   1.000E+00   1.000E+00   0.000E+00   0.000E+00   0.000E+00      2     3     4
     6          -1           0           1      0.0000      0.0000    -45.9744      0.0400   9.000E+00   0.000E+00   1.000E-03   0.000E+00   0.000E+00           T           F   0.000E+00   0.000E+00   6.000E-01   0.000E+00   1.000E+00   1.000E+00   1.000E+00   0.000E+00   0.000E+00   0.000E+00      2     4     5
     7          -1           0           1      0.0000      0.0000    -45.4955      0.0500   9.000E+00   0.000E+00   1.000E-03   0.000E+00   0.000E+00           T           F   0.000E+00   0.000E+00   6.000E-01   0.000E+00   1.000E+00   1.000E+00   1.000E+00   0.000E+00   0.000E+00   0.000E+00      2     5     6
     8          -1           0           1      0.0000      0.0000    -45.0166      0.0600   9.000E+00   0.000E+00   1.000E-03   0.000E+00   0.000E+00           T           F   0.000E+00   0.000E+00   6.000E-01   0.000E+00   1.000E+00   1.000E+00   1.000E+00   0.000E+00   0.000E+00   0.000E+00      2     6     7
     9          -1           0           1      0.0000      0.0000    -44.5377      0.0700   9.000E+00   0.000E+00   1.000E-03   0.000E+00   0.000E+00           T           F   0.000E+00   0.000E+00   6.000E-01   0.000E+00   1.000E+00   1.000E+00   1.000E+00   0.000E+00   0.000E+00   0.000E+00      2     7     8
    10          -1           0           1      0.0000      0.0000    -44.0588      0.0800   9.000E+00   0.000E+00   1.000E-03   0.000E+00   0.000E+00           T           F   0.000E+00   0.000E+00   6.000E-01   0.000E+00   1.000E+00   1.000E+00   1.000E+00   0.000E+00   0.000E+00   0.000E+00      2     8     9
    11          -1           0           1      0.0000      0.0000    -43.5799      0.0900   9.000E+00   0.000E+00   1.000E-03   0.000E+00   0.000E+00           T           F   0.000E+00   0.000E+00   6.000E-01   0.000E+00   1.000E+00   1.000E+00   1.000E+00   0.000E+00   0.000E+00   0.000E+00      2     9    10
    12          -1           0           1      0.0000      0.0000    -43.1010      0.1000   9.000E+00   0.000E+00   1.000E-03   0.000E+00   0.000E+00           T           F   0.000E+00   0.000E+00   6.000E-01   0.000E+00   1.000E+00   1.000E+00   1.000E+00   0.000E+00   0.000E+00   0.000E+00      2    10    11
    13          -1           0           1      0.0000      0.0000    -42.6221      0.1100   9.000E+00   0.000E+00   1.000E-03   0.000E+00   0.000E+00           T           F   0.000E+00   0.000E+00   6.000E-01   0.000E+00   1.000E+00   1.000E+00   1.000E+00   0.000E+00   0.000E+00   0.000E+00      2    11    12
    14          -1           0           1      0.0000      0.0000    -42.1432      0.1200   9.000E+00   0.000E+00   1.000E-03   0.000E+00   0.000E+00           T           F   0.000E+00   0.000E+00   6.000E-01   0.000E+00   1.000E+00   1.000E+00   1.000E+00   0.000E+00   0.000E+00   0.000E+00      2    12    13
    15          -1           0           1      0.0000      0.0000    -41.6643      0.1300   9.000E+00   0.000E+00   1.000E-03   0.000E+00   0.000E+00           T           F   0.000E+00   0.000E+00   6.000E-01   0.000E+00   1.000E+00   1.000E+00   1.000E+00   0.000E+00   0.000E+00   0.000E+00      2    13    14
    16          -1           0           1      0.0000      0.0000    -41.1854      0.1400   9.000E+00   0.000E+00   1.000E-03   0.000E+00   0.000E+00           T           F   0.000E+00   0.000E+00   6.000E-01   0.000E+00   1.000E+00   1.000E+00   1.000E+00   0.000E+00   0.000E+00   0.000E+00      2    14    15
    17          -1           0           1      0.0000      0.0000    -40.7065      0.1500   9.000E+00   0.000E+00   1.000E-03   0.000E+00   0.000E+00           T           F   0.000E+00   0.000E+00   6.000E-01   0.000E+00   1.000E+00   1.000E+00   1.000E+00   0.000E+00   0.000E+00   0.000E+00      2    15    16
    18          -1           0           1      0.0000      0.0000    -40.2276      0.1600   9.000E+00   0.000E+00   1.000E-03   0.000E+00   0.000E+00           T           F   0.000E+00   0.000E+00   6.000E-01   0.000E+00   1.000E+00   1.000E+00   1.000E+00   0.000E+00   0.000E+00   0.000E+00      2    16    17
    19          -1           0           1      0.0000      0.0000    -39.7487      0.1700   9.000E+00   0.000E+00   1.000E-03   0.000E+00   0.000E+00           T           F   0.000E+00   0.000E+00   6.000E-01   0.000E+00   1.000E+00   1.000E+00   1.000E+00   0.000E+00   0.000E+00   0.000E+00      2    17    18
    20          -1           0           1      0.0000      0.0000    -39.2698      0.1800   9.000E+00   0.000E+00   1.000E-03   0.000E+00   0.000E+00           T           F   0.000E+00   0.000E+00   6.000E-01   0.000E+00   1.000E+00   1.000E+00   1.000E+00   0.000E+00   0.000E+00   0.000E+00      2    18    19
    21          -1           0           1      0.0000      0.0000    -38.7909      0.1900   9.000E+00   0.000E+00   1.000E-03   0.000E+00   0.000E+00           T           F   0.000E+00   0.000E+00   6.000E-01   0.000E+00   1.000E+00   1.000E+00   1.000E+00   0.000E+00   0.000E+00   0.000E+00      2    19    20
    22          -1           0           1      0.0000      0.0000    -38.3120      0.2000   9.000E+00   0.000E+00   1.000E-03   0.000E+00   0.000E+00           T           F   0.000E+00   0.000E+00   6.000E-01   0.000E+00   1.000E+00   1.000E+00   1.000E+00   0.000E+00   0.000E+00   0.000E+00      2    20    21
    23          -1           0           1      0.0000      0.0000    -37.8331      0.2100   9.000E+00   0.000E+00   1.000E-03   0.000E+00   0.000E+00           T           F   0.000E+00   0.000E+00   6.000E-01   0.000E+00   1.000E+00   1.000E+00   1.000E+00   0.000E+00   0.000E+00   0.000E+00      2    21    22
    24          -1           0           1      0.0000      0.0000    -37.3542      0.2200   9.000E+00   0.000E+00   1.000E-03   0.000E+00   0.000E+00           T           F   0.000E+00   0.000E+00   6.000E-01   0.000E+00   1.000E+00   1.000E+00   1.000E+00   0.000E+00   0.000E+00   0.000E+00      2    22    23
    25          -1           0           1      0.0000      0.0000    -36.8753      0.2300   9.000E+00   0.000E+00   1.000E-03   0.000E+00   0.000E+00           T           F   0.000E+00   0.000E+00   6.000E-01   0.000E+00   1.000E+00   1.000E+00   1.000E+00   0.000E+00   0.000E+00   0.000E+00      2    23    24
    26          -1           0           1      0.0000      0.0000    -36.3964      0.2400   9.000E+00   0.000E+00   1.000E-03   0.000E+00   0.000E+00           T           F   0.000E+00   0.000E+00   6.000E-01   0.000E+00   1.000E+00   1.000E+00   1.000E+00   0.000E+00   0.000E+00   0.000E+00      2    24    25
    27          -1           0           1      0.0000      0.0000    -35.9175      0.2500   9.000E+00   0.000E+00   1.000E-03   0.000E+00   0.000E+00           T           F   0.000E+00   0.000E+00   6.000E-01   0.000E+00   1.000E+00   1.000E+00   1.000E+00   0.000E+00   0.000E+00   0.000E+00      2    25    26
    28          -1           0           1      0.0000      0.0000    -35.4386      0.2600   9.000E+00   0.000E+00   1.000E-03   0.000E+00   0.000E+00           T           F   0.000E+00   0.000E+00   6.000E-01   0.000E+00   1.000E+00   1.000E+00   1.000E+00   0.000E+00   0.000E+00   0.000E+00      2    26    27
    29          -1           0           1      0.0000      0.0000    -34.9597      0.2700   9.000E+00   0.000E+00   1.000E-03   0.000E+00   0.000E+00           T           F   0.000E+00   0.000E+00   6.000E-01   0.000E+00   1.000E+00   1.000E+00   1.000E+00   0.000E+00   0.000E+00   0.000E+00      2    27    28
    30          -1           0           1      0.0000      0.0000    -34.4808      0.2800   9.000E+00   0.000E+00   1.000E-03   0.000E+00   0.000E+00           T           F   0.000E+00   0.000E+00   6.000E-01   0.000E+00   1.000E+00   1.000E+00   1.000E+00   0.000E+00   0.000E+00   0.000E+00      2    28    29
    31          -1           0           1      0.0000      0.0000    -34.0019      0.2900   9.000E+00   0.000E+00   1.000E-03   0.000E+00   0.000E+00           T           F   0.000E+00   0.000E+00   6.000E-01   0.000E+00   1.000E+00   1.000E+00   1.000E+00   0.000E+00   0.000E+00   0.000E+00      2    29    30
    32          -1           0           1      0.0000      0.0000    -33.5230      0.3000   9.000E+00   0.000E+00   1.000E-03   0.000E+00   0.000E+00           T           F   0.000E+00   0.000E+00   6.000E-01   0.000E+00   1.000E+00   1.000E+00   1.000E+00   0.000E+00   0.000E+00   0.000E+00      2    30    31
    33          -1           0           1      0.0000      0.0000    -33.0441      0.3100   9.000E+00   0.000E+00   1.000E-03   0.000E+00   0.000E+00           T           F   0.000E+00   0.000E+00   6.000E-01   0.000E+00   1.000E+00   1.000E+00   1.000E+00   0.000E+00   0.000E+00   0.000E+00      2    31    32
    34          -1           0           1      0.0000      0.0000    -32.5652      0.3200   9.000E+00   0.000E+00   1.000E-03   0.000E+00   0.000E+00           T           F   0.000E+00   0.000E+00   6.000E-01   0.000E+00   1.000E+00   1.000E+00   1.000E+00   0.000E+00   0.000E+00   0.000E+00      2    32    33
    35          -1           0           1      0.0000      0.0000    -32.0863      0.3300   9.000E+00   0.000E+00   1.000E-03   0.000E+00   0.000E+00           T           F   0.000E+00   0.000E+00   6.000E-01   0.000E+00   1.000E+00   1.000E+00   1.000E+00   0.000E+00   0.000E+00   0.000E+00      2    33    34
    36          -1           0           1      0.0000      0.0000    -31.6074      0.3400   9.000E+00   0.000E+00   1.000E-03   0.000E+00   0.000E+00           T           F   0.000E+00   0.000E+00   6.000E-01   0.000E+00   1.000E+00   1.000E+00   1.000E+00   0.000E+00   0.000E+00   0.000E+00      2    34    35
    37          -1           0           1      0.0000      0.0000    -31.1285      0.3500   9.000E+00   0.000E+00   1.000E-03   0.000E+00   0.000E+00           T           F   0.000E+00   0.000E+00   6.000E-01   0.000E+00   1.000E+00   1.000E+00   1.000E+00   0.000E+00   0.000E+00   0.000E+00      2    35    36
    38          -1           0           1      0.0000      0.0000    -30.6496      0.3600   9.000E+00   0.000E+00   1.000E-03   0.000E+00   0.000E+00           T           F   0.000E+00   0.000E+00   6.000E-01   0.000E+00   1.000E+00   1.000E+00   1.000E+00   0.000E+00   0.000E+00   0.000E+00      2    36    37
    39          -1           0           1      0.0000      0.0000    -30.1707      0.3700   9.000E+00   0.000E+00   1.000E-03   0.000E+00   0.000E+00           T           F   0.000E+00   0.000E+00   6.000E-01   0.000E+00   1.000E+00   1.000E+00   1.000E+00   0.000E+00   0.000E+00   0.000E+00      2    37    38
    40          -1           0           1      0.0000      0.0000    -29.6918      0.3800   9.000E+00   0.000E+00   1.000E-03   0.000E+00   0.000E+00           T           F   0.000E+00   0.000E+00   6.000E-01   0.000E+00   1.000E+00   1.000E+00   1.000E+00   0.000E+00   0.000E+00   0.000E+00      2    38    39
    41          -1           0           1      0.0000      0.0000    -29.2129      0.3900   9.000E+00   0.000E+00   1.000E-03   0.000E+00   0.000E+00           T           F   0.000E+00   0.000E+00   6.000E-01   0.000E+00   1.000E+00   1.000E+00   1.000E+00   0.000E+00   0.000E+00   0.000E+00      2    39    40
    42          -1           0           1      0.0000      0.0000    -28.7340      0.4000   9.000E+00   0.000E+00   1.000E-03   0.000E+00   0.000E+00           T           F   0.000E+00   0.000E+00   6.000E-01   0.000E+00   1.000E+00   1.000E+00   1.000E+00   0.000E+00   0.000E+00   0.000E+00      2    40    41
    43          -1           0           1      0.0000      0.0000    -28.2551      0.4100   9.000E+00   0.000E+00   1.000E-03   0.000E+00   0.000E+00           T           F   0.000E+00   0.000E+00   6.000E-01   0.000E+00   1.000E+00   1.000E+00   1.000E+00   0.000E+00   0.000E+00   0.000E+00      2    41    42
    44          -1           0           1      0.0000      0.0000    -27.7762      0.4200   9.000E+00   0.000E+00   1.000E-03   0.000E+00   0.000E+00           T           F   0.000E+00   0.000E+00   6.000E-01   0.000E+00   1.000E+00   1.000E+00   1.000E+00   0.000E+00   0.000E+00   0.000E+00      2    42    43
    45          -1           0           1      0.0000      0.0000    -27.2973      0.4300   9.000E+00   0.000E+00   1.000E-03   0.000E+00   0.000E+00           T           F   0.000E+00   0.000E+00   6.000E-01   0.000E+00   1.000E+00   1.000E+00   1.000E+00   0.000E+00   0.000E+00   0.000E+00      2    43    44
    46          -1           0           1      0.0000      0.0000    -26.8184      0.4400   9.000E+00   0.000E+00   1.000E-03   0.000E+00   0.000E+00           T           F   0.000E+00   0.000E+00   6.000E-01   0.000E+00   1.000E+00   1.000E+00   1.000E+00   0.000E+00   0.000E+00   0.000E+00      2    44    45
    47          -1           0           1      0.0000      0.0000    -26.3395      0.4500   9.000E+00   0.000E+00   1.000E-03   0.000E+00   0.000E+00           T           F   0.000E+00   0.000E+00   6.000E-01   0.000E+00   1.000E+00   1.000E+00   1.000E+00   0.000E+00   0.000E+00   0.000E+00      2    45    46
    48          -1           0           1      0.0000      0.0000    -25.8606      0.4600   9.000E+00   0.000E+00   1.000E-03   0.000E+00   0.000E+00           T           F   0.000E+00   0.000E+00   6.000E-01   0.000E+00   1.000E+00   1.000E+00   1.000E+00   0.000E+00   0.000E+00   0.000E+00      2    46    47
    49          -1           0           1      0.0000      0.0000    -25.3817      0.4700   9.000E+00   0.000E+00   1.000E-03   0.000E+00   0.000E+00           T           F   0.000E+00   0.000E+00   6.000E-01   0.000E+00   1.000E+00   1.000E+00   1.000E+00   0.000E+00   0.000E+00   0.000E+00      2    47    48
    50          -1           0           1      0.0000      0.0000    -24.9028      0.4800   9.000E+00   0.000E+00   1.000E-03   0.000E+00   0.000E+00           T           F   0.000E+00   0.000E+00   6.000E-01   0.000E+00   1.000E+00   1.000E+00   1.000E+00   0.000E+00   0.000E+00   0.000E+00      2    48    49
    51          -1           0           1      0.0000      0.0000    -24.4239      0.4900   9.000E+00   0.000E+00   1.000E-03   0.000E+00   0.000E+00           T           F   0.000E+00   0.000E+00   6.000E-01   0.000E+00   1.000E+00   1.000E+00   1.000E+00   0.000E+00   0.000E+00   0.000E+00      2    49    50
    52          -1           0           1      0.0000      0.0000    -23.9450      0.5000   9.000E+00   0.000E+00   1.000E-03   0.000E+00   0.000E+00           T           F   0.000E+00   0.000E+00   6.000E-01   0.000E+00   1.000E+00   1.000E+00   1.000E+00   0.000E+00   0.000E+00   0.000E+00      2    50    51
    53          -1           0           1      0.0000      0.0000    -23.4661      0.5100   9.000E+00   0.000E+00   1.000E-03   0.000E+00   0.000E+00           T           F   0.000E+00   0.000E+00   6.000E-01   0.000E+00   1.000E+00   1.000E+00   1.000E+00   0.000E+00   0.000E+00   0.000E+00      2    51    52
    54          -1           0           1      0.0000      0.0000    -22.9872      0.5200   9.000E+00   0.000E+00   1.000E-03   0.000E+00   0.000E+00           T           F   0.000E+00   0.000E+00   6.000E-01   0.000E+00   1.000E+00   1.000E+00   1.000E+00   0.000E+00   0.000E+00   0.000E+00      2    52    53
    55          -1           0           1      0.0000      0.0000    -22.5083      0.5300   9.000E+00   0.000E+00   1.000E-03   0.000E+00   0.000E+00           T           F   0.000E+00   0.000E+00   6.000E-01   0.000E+00   1.000E+00   1.000E+00   1.000E+00   0.000E+00   0.000E+00   0.000E+00      2    53    54
    56          -1           0           1      0.0000      0.0000    -22.0294      0.5400   9.000E+00   0.000E+00   1.000E-03   0.000E+00   0.000E+00           T           F   0.000E+00   0.000E+00   6.000E-01   0.000E+00   1.000E+00   1.000E+00   1.000E+00   0.000E+00   0.000E+00   0.000E+00      2    54    55
    57          -1           0           1      0.0000      0.0000    -21.5505      0.5500   9.000E+00   0.000E+00   1.000E-03   0.000E+00   0.000E+00           T           F   0.000E+00   0.000E+00   6.000E-01   0.000E+00   1.000E+00   1.000E+00   1.000E+00   0.000E+00   0.000E+00   0.000E+00      2    55    56
    58          -1           0           1      0.0000      0.0000    -21.0716      0.5600   9.000E+00   0.000E+00   1.000E-03   0.000E+00   0.000E+00           T           F   0.000E+00   0.000E+00   6.000E-01   0.000E+00   1.000E+00   1.000E+00   1.000E+00   0.000E+00   0.000E+00   0.000E+00      2    56    57
    59          -1           0           1      0.0000      0.0000    -20.5927      0.5700   9.000E+00   0.000E+00   1.000E-03   0.000E+00   0.000E+00           T           F   0.000E+00   0.000E+00   6.000E-01   0.000E+00   1.000E+00   1.000E+00   1.000E+00   0.000E+00   0.000E+00   0.000E+00      2    57    58
    60          -1           0           1      0.0000      0.0000    -20.1138      0.5800   9.000E+00   0.000E+00   1.000E-03   0.000E+00   0.000E+00           T           F   0.000E+00   0.000E+00   6.000E-01   0.000E+00   1.000E+00   1.000E+00   1.000E+00   0.000E+00   0.000E+00   0.000E+00      2    58    59
    61          -1           0           1      0.0000      0.0000    -19.6349      0.5900   9.000E+00   0.000E+00   1.000E-03   0.000E+00   0.000E+00           T           F   0.000E+00   0.000E+00   6.000E-01   0.000E+00   1.000E+00   1.000E+00   1.000E+00   0.000E+00   0.000E+00   0.000E+00      2    59    60
    62          -1           0           1      0.0000      0.0000    -19.1560      0.6000   9.000E+00   0.000E+00   1.000E-03   0.000E+00   0.000E+00           T           F   0.000E+00   0.000E+00   6.000E-01   0.000E+00   1.000E+00   1.000E+00   1.000E+00   0.000E+00   0.000E+00   0.000E+00      2    60    61
    63          -1           0           1      0.0000      0.0000    -18.6771      0.6100   9.000E+00   0.000E+00   1.000E-03   0.000E+00   0.000E+00           T           F   0.000E+00   0.000E+00   6.000E-01   0.000E+00   1.000E+00   1.000E+00   1.000E+00   0.000E+00   0.000E+00   0.000E+00      2    61    62
    64          -1           0           1      0.0000      0.0000    -18.1982      0.6200   9.000E+00   0.000E+00   1.000E-03   0.000E+00   0.000E+00           T           F   0.000E+00   0.000E+00   6.000E-01   0.000E+00   1.000E+00   1.000E+00   1.000E+00   0.000E+00   0.000E+00   0.000E+00      2    62    63
    65          -1           0           1      0.0000      0.0000    -17.7193      0.6300   9.000E+00   0.000E+00   1.000E-03   0.000E+00   0.000E+00           T           F   0.000E+00   0.000E+00   6.000E-01   0.000E+00   1.000E+00   1.000E+00   1.000E+00   0.000E+00   0.000E+00   0.000E+00      2    63    64
    66          -1           0           1      0.0000      0.0000    -17.2404      0.6400   9.000E+00   0.000E+00   1.000E-03   0.000E+00   0.000E+00           T           F   0.000E+00   0.000E+00   6.000E-01   0.000E+00   1.000E+00   1.000E+00   1.000E+00   0.000E+00   0.000E+00   0.000E+00      2    64    65
    67          -1           0           1      0.0000      0.0000    -16.7615      0.6500   9.000E+00   0.000E+00   1.000E-03   0.000E+00   0.000E+00           T           F   0.000E+00   0.000E+00   6.000E-01   0.000E+00   1.000E+00   1.000E+00   1.000E+00   0.000E+00   0.000E+00   0.000E+00      2    65    66
    68          -1           0           1      0.0000      0.0000    -16.2826      0.6600   9.000E+00   0.000E+00   1.000E-03   0.000E+00   0.000E+00           T           F   0.000E+00   0.000E+00   6.000E-01   0.000E+00   1.000E+00   1.000E+00   1.000E+00   0.000E+00   0.000E+00   0.000E+00      2    66    67
    69          -1           0           1      0.0000      0.0000    -15.8037      0.6700   9.000E+00   0.000E+00   1.000E-03   0.000E+00   0.000E+00           T           F   0.000E+00   0.000E+00   6.000E-01   0.000E+00   1.000E+00   1.000E+00   1.000E+00   0.000E+00   0.000E+00   0.000E+00      2    67    68
    70          -1           0           1      0.0000      0.0000    -15.3248      0.6800   9.000E+00   0.000E+00   1.000E-03   0.000E+00   0.000E+00           T           F   0.000E+00   0.000E+00   6.000E-01   0.000E+00   1.000E+00   1.000E+00   1.000E+00   0.000E+00   0.000E+00   0.000E+00      2    68    69
    71          -1           0           1      0.0000      0.0000    -14.8459      0.6900   9.000E+00   0.000E+00   1.000E-03   0.000E+00   0.000E+00           T           F   0.000E+00   0.000E+00   6.000E-01   0.000E+00   1.000E+00   1.000E+00   1.000E+00   0.000E+00   0.000E+00   0.000E+00      2    69    70
    72          -1           0           1      0.0000      0.0000    -14.3670      0.7000   9.000E+00   0.000E+00   1.000E-03   0.000E+00   0.000E+00           T           F   0.000E+00   0.000E+00   6.000E-01   0.000E+00   1.000E+00   1.000E+00   1.000E+00   0.000E+00   0.000E+00   0.000E+00      2    70    71
    73          -1           0           1      0.0000      0.0000    -13.8881      0.7100   9.000E+00   0.000E+00   1.000E-03   0.000E+00   0.000E+00           T           F   0.000E+00   0.000E+00   6.000E-01   0.000E+00   1.000E+00   1.000E+00   1.000E+00   0.000E+00   0.000E+00   0.000E+00      2    71    72
    74          -1           0           1      0.0000      0.0000    -13.4092      0.7200   9.000E+00   0.000E+00   1.000E-03   0.000E+00   0.000E+00           T           F   0.000E+00   0.000E+00   6.000E-01   0.000E+00   1.000E+00   1.000E+00   1.000E+00   0.000E+00   0.000E+00   0.000E+00      2    72    73
    75          -1           0           1      0.0000      0.0000    -12.9303      0.7300   9.000E+00   0.000E+00   1.000E-03   0.000E+00   0.000E+00           T           F   0.000E+00   0.000E+00   6.000E-01   0.000E+00   1.000E+00   1.000E+00   1.000E+00   0.000E+00   0.000E+00   0.000E+00      2    73    74
    76          -1           0           1      0.0000      0.0000    -12.4514      0.7400   9.000E+00   0.000E+00   1.000E-03   0.000E+00   0.000E+00           T           F   0.000E+00   0.000E+00   6.000E-01   0.000E+00   1.000E+00   1.000E+00   1.000E+00   0.000E+00   0.000E+00   0.000E+00      2    74    75
    77          -1           0           1      0.0000      0.0000    -11.9725      0.7500   9.000E+00   0.000E+00   1.000E-03   0.000E+00   0.000E+00           T           F   0.000E+00   0.000E+00   6.000E-01   0.000E+00   1.000E+00   1.000E+00   1.000E+00   0.000E+00   0.000E+00   0.000E+00      2    75    76
    78          -1           0           1      0.0000      0.0000    -11.4936      0.7600   9.000E+00   0.000E+00   1.000E-03   0.000E+00   0.000E+00           T           F   0.000E+00   0.000E+00   6.000E-01   0.000E+00   1.000E+00   1.000E+00   1.000E+00   0.000E+00   0.000E+00   0.000E+00      2    76    77
    79          -1           0           1      0.0000      0.0000    -11.0147      0.7700   9.000E+00   0.000E+00   1.000E-03   0.000E+00   0.000E+00           T           F   0.000E+00   0.000E+00   6.000E-01   0.000E+00   1.000E+00   1.000E+00   1.000E+00   0.000E+00   0.000E+00   0.000E+00      2    77    78
    80          -1           0           1      0.0000      0.0000    -10.5358      0.7800   9.000E+00   0.000E+00   1.000E-03   0.000E+00   0.000E+00           T           F   0.000E+00   0.000E+00   6.000E-01   0.000E+00   1.000E+00   1.000E+00   1.000E+00   0.000E+00   0.000E+00   0.000E+00      2    78    79
    81          -1           0           1      0.0000      0.0000    -10.0569      0.7900   9.000E+00   0.000E+00   1.000E-03   0.000E+00   0.000E+00           T           F   0.000E+00   0.000E+00   6.000E-01   0.000E+00   1.000E+00   1.000E+00   1.000E+00   0.000E+00   0.000E+00   0.000E+00      2    79    80
    82          -1           0           1      0.0000      0.0000     -9.5780      0.8000   9.000E+00   0.000E+00   1.000E-03   0.000E+00   0.000E+00           T           F   0.000E+00   0.000E+00   6.000E-01   0.000E+00   1.000E+00   1.000E+00   1.000E+00   0.000E+00   0.000E+00   0.000E+00      2    80    81
    83          -1           0           1      0.0000      0.0000     -9.0991      0.8100   9.000E+00   0.000E+00   1.000E-03   0.000E+00   0.000E+00           T           F   0.000E+00   0.000E+00   6.000E-01   0.000E+00   1.000E+00   1.000E+00   1.000E+00   0.000E+00   0.000E+00   0.000E+00      2    81    82
    84          -1           0           1      0.0000      0.0000     -8.6202      0.8200   9.000E+00   0.000E+00   1.000E-03   0.000E+00   0.000E+00           T           F   0.000E+00   0.000E+00   6.000E-01   0.000E+00   1.000E+00   1.000E+00   1.000E+00   0.000E+00   0.000E+00   0.000E+00      2    82    83
    85          -1           0           1      0.0000      0.0000     -8.1413      0.8300   9.000E+00   0.000E+00   1.000E-03   0.000E+00   0.000E+00           T           F   0.000E+00   0.000E+00   6.000E-01   0.000E+00   1.000E+00   1.000E+00   1.000E+00   0.000E+00   0.000E+00   0.000E+00      2    83    84
    86          -1           0           1      0.0000      0.0000     -7.6624      0.8400   9.000E+00   0.000E+00   1.000E-03   0.000E+00   0.000E+00           T           F   0.000E+00   0.000E+00   6.000E-01   0.000E+00   1.000E+00   1.000E+00   1.000E+00   0.000E+00   0.000E+00   0.000E+00      2    84    85
    87          -1           0           1      0.0000      0.0000     -7.1835      0.8500   9.000E+00   0.000E+00   1.000E-03   0.000E+00   0.000E+00           T           F   0.000E+00   0.000E+00   6.000E-01   0.000E+00   1.000E+00   1.000E+00   1.000E+00   0.000E+00   0.000E+00   0.000E+00      2    85    86
    88          -1           0           1      0.0000      0.0000     -6.7046      0.8600   9.000E+00   0.000E+00   1.000E-03   0.000E+00   0.000E+00           T           F   0.000E+00   0.000E+00   6.000E-01   0.000E+00   1.000E+00   1.000E+00   1.000E+00   0.000E+00   0.000E+00   0.000E+00      2    86    87
    89          -1           0           1      0.0000      0.0000     -6.2257      0.8700   9.000E+00   0.000E+00   1.000E-03   0.000E+00   0.000E+00           T           F   0.000E+00   0.000E+00   6.000E-01   0.000E+00   1.000E+00   1.000E+00   1.000E+00   0.000E+00   0.000E+00   0.000E+00      2    87    88
    90          -1           0           1      0.0000      0.0000     -5.7468      0.8800   9.000E+00   0.000E+00   1.000E-03   0.000E+00   0.000E+00           T           F   0.000E+00   0.000E+00   6.000E-01   0.000E+00   1.000E+00   1.000E+00   1.000E+00   0.000E+00   0.000E+00   0.000E+00      2    88    89
    91          -1           0           1      0.0000      0.0000     -5.2679      0.8900   9.000E+00   0.000E+00   1.000E-03   0.000E+00   0.000E+00           T           F   0.000E+00   0.000E+00   6.000E-01   0.000E+00   1.000E+00   1.000E+00   1.000E+00   0.000E+00   0.000E+00   0.000E+00      2    89    90
    92          -1           0           1      0.0000      0.0000     -4.7890      0.9000   9.000E+00   0.000E+00   1.000E-03   0.000E+00   0.000E+00           T           F   0.000E+00   0.000E+00   6.000E-01   0.000E+00   1.000E+00   1.000E+00   1.000E+00   0.000E+00   0.000E+00   0.000E+00      2    90    91
    93          -1           0           1      0.0000      0.0000     -4.3101      0.9100   9.000E+00   0.000E+00   1.000E-03   0.000E+00   0.000E+00           T           F   0.000E+00   0.000E+00   6.000E-01   0.000E+00   1.000E+00   1.000E+00   1.000E+00   0.000E+00   0.000E+00   0.000E+00      2    91    92
    94          -1           0           1      0.0000      0.0000     -3.8312      0.9200   9.000E+00   0.000E+00   1.000E-03   0.000E+00   0.000E+00           T           F   0.000E+00   0.000E+00   6.000E-01   0.000E+00   1.000E+00   1.000E+00   1.000E+00   0.000E+00   0.000E+00   0.000E+00      2    92    93
    95          -1           0           1      0.0000      0.0000     -3.3523      0.9300   9.000E+00   0.000E+00   1.000E-03   0.000E+00   0.000E+00           T           F   0.000E+00   0.000E+00   6.000E-01   0.000E+00   1.000E+00   1.000E+00   1.000E+00   0.000E+00   0.000E+00   0.000E+00      2    93    94
    96          -1           0           1      0.0000      0.0000     -2.8734      0.9400   9.000E+00   0.000E+00   1.000E-03   0.000E+00   0.000E+00           T           F   0.000E+00   0.000E+00   6.000E-01   0.000E+00   1.000E+00   1.000E+00   1.000E+00   0.000E+00   0.000E+00   0.000E+00      2    94    95
    97          -1           0           1      0.0000      0.0000     -2.3945      0.9500   9.000E+00   0.000E+00   1.000E-03   0.000E+00   0.000E+00           T           F   0.000E+00   0.000E+00   6.000E-01   0.000E+00   1.000E+00   1.000E+00   1.000E+00   0.000E+00   0.000E+00   0.000E+00      2    95    96
    98          -1           0           1      0.0000      0.0000     -1.9156      0.9600   9.000E+00   0.000E+00   1.000E-03   0.000E+00   0.000E+00           T           F   0.000E+00   0.000E+00   6.000E-01   0.000E+00   1.000E+00   1.000E+00   1.000E+00   0.000E+00   0.000E+00   0.000E+00      2    96    97
    99          -1           0           1      0.0000      0.0000     -1.4367      0.9700   9.000E+00   0.000E+00   1.000E-03   0.000E+00   0.000E+00           T           F   0.000E+00   0.000E+00   6.000E-01   0.000E+00   1.000E+00   1.000E+00   1.000E+00   0.000E+00   0.000E+00   0.000E+00      2    97    98
   100          -1           0           1      0.0000      0.0000     -0.9578      0.9800   9.000E+00   0.000E+00   1.000E-03   0.000E+00   0.000E+00           T           F   0.000E+00   0.000E+00   6.000E-01   0.000E+00   1.000E+00   1.000E+00   1.000E+00   0.000E+00   0.000E+00   0.000E+00      2    98    99
   101          -1           0           1      0.0000      0.0000     -0.4789      0.9900   9.000E+00   0.000E+00   1.000E-03   0.000E+00   0.000E+00           T           F   0.000E+00   0.000E+00   6.000E-01   0.000E+00   1.000E+00   1.000E+00   1.000E+00   0.000E+00   0.000E+00   0.000E+00      2    99   100



Elements


   i    node1  node2      Length       Volume       MGVolume          R1          tMG1           t1             R2          tMG2           t2          MGDens1       MGDens2        PropPot     FilledFlag   FillDensity    FillFSLoc     FillMass         Cd1            Ca1          Cp1          AxCa1         AxCp1        JAxCd1        JAxCa1        JAxCp1          Cd2           Ca2           Cp2          AxCa2         AxCp2        JAxCd2        JAxCa2        JAxCp2   
  (-)    (-)    (-)        (m)         (m^3)         (m^3)           (m)           (m)           (m)           (m)           (m)           (m)        (kg/m^3)      (kg/m^3)         (-)           (-)        (kg/m^3)         (-)          (kg)           (-)            (-)          (-)           (-)           (-)           (-)           (-)           (-)           (-)            (-)          (-)           (-)           (-)           (-)           (-)           (-)    
     1      1      3   4.78900E-01   0.00000E+00   0.00000E+00   9.00000E+00   0.00000E+00   1.00000E-03   9.00000E+00   0.00000E+00   1.00000E-03   0.00000E+00   0.00000E+00             T             F   0.00000E+00   0.00000E+00   0.00000E+00   6.00000E-01   0.00000E+00   1.00000E+00   1.00000E+00   1.00000E+00   0.00000E+00   0.00000E+00   1.00000E+00   6.00000E-01   0.00000E+00   1.00000E+00   1.00000E+00   1.00000E+00   0.00000E+00   0.00000E+00   0.00000E+00
     2      3      4   4.78900E-01   0.00000E+00   0.00000E+00   9.00000E+00   0.00000E+00   1.00000E-03   9.00000E+00   0.00000E+00   1.00000E-03   0.00000E+00   0.00000E+00             T             F   0.00000E+00   0.00000E+00   0.00000E+00   6.00000E-01   0.00000E+00   1.00000E+00   1.00000E+00   1.00000E+00   0.00000E+00   0.00000E+00   0.00000E+00   6.00000E-01   0.00000E+00   1.00000E+00   1.00000E+00   1.00000E+00   0.00000E+00   0.00000E+00   0.00000E+00
     3      4      5   4.78900E-01   0.00000E+00   0.00000E+00   9.00000E+00   0.00000E+00   1.00000E-03   9.00000E+00   0.00000E+00   1.00000E-03   0.00000E+00   0.00000E+00             T             F   0.00000E+00   0.00000E+00   0.00000E+00   6.00000E-01   0.00000E+00   1.00000E+00   1.00000E+00   1.00000E+00   0.00000E+00   0.00000E+00   0.00000E+00   6.00000E-01   0.00000E+00   1.00000E+00   1.00000E+00   1.00000E+00   0.00000E+00   0.00000E+00   0.00000E+00
     4      5      6   4.78900E-01   0.00000E+00   0.00000E+00   9.00000E+00   0.00000E+00   1.00000E-03   9.00000E+00   0.00000E+00   1.00000E-03   0.00000E+00   0.00000E+00             T             F   0.00000E+00   0.00000E+00   0.00000E+00   6.00000E-01   0.00000E+00   1.00000E+00   1.00000E+00   1.00000E+00   0.00000E+00   0.00000E+00   0.00000E+00   6.00000E-01   0.00000E+00   1.00000E+00   1.00000E+00   1.00000E+00   0.00000E+00   0.00000E+00   0.00000E+00
     5      6      7   4.78900E-01   0.00000E+00   0.00000E+00   9.00000E+00   0.00000E+00   1.00000E-03   9.00000E+00   0.00000E+00   1.00000E-03   0.00000E+00   0.00000E+00             T             F   0.00000E+00   0.00000E+00   0.00000E+00   6.00000E-01   0.00000E+00   1.00000E+00   1.00000E+00   1.00000E+00   0.00000E+00   0.00000E+00   0.00000E+00   6.00000E-01   0.00000E+00   1.00000E+00   1.00000E+00   1.00000E+00   0.00000E+00   0.00000E+00   0.00000E+00
     6      7      8   4.78900E-01   0.00000E+00   0.00000E+00   9.00000E+00   0.00000E+00   1.00000E-03   9.00000E+00   0.00000E+00   1.00000E-03   0.00000E+00   0.00000E+00             T             F   0.00000E+00   0.00000E+00   0.00000E+00   6.00000E-01   0.00000E+00   1.00000E+00   1.00000E+00   1.00000E+00   0.00000E+00   0.00000E+00   0.00000E+00   6.00000E-01   0.00000E+00   1.00000E+00   1.00000E+00   1.00000E+00   0.00000E+00   0.00000E+00   0.00000E+00
     7      8      9   4.78900E-01   0.00000E+00   0.00000E+00   9.00000E+00   0.00000E+00   1.00000E-03   9.00000E+00   0.00000E+00   1.00000E-03   0.00000E+00   0.00000E+00             T             F   0.00000E+00   0.00000E+00   0.00000E+00   6.00000E-01   0.00000E+00   1.00000E+00   1.00000E+00   1.00000E+00   0.00000E+00   0.00000E+00   0.00000E+00   6.00000E-01   0.00000E+00   1.00000E+00   1.00000E+00   1.00000E+00   0.00000E+00   0.00000E+00   0.00000E+00
     8      9     10   4.78900E-01   0.00000E+00   0.00000E+00   9.00000E+00   0.00000E+00   1.00000E-03   9.00000E+00   0.00000E+00   1.00000E-03   0.00000E+00   0.00000E+00             T             F   0.00000E+00   0.00000E+00   0.00000E+00   6.00000E-01   0.00000E+00   1.00000E+00   1.00000E+00   1.00000E+00   0.00000E+00   0.00000E+00   0.00000E+00   6.00000E-01   0.00000E+00   1.00000E+00   1.00000E+00   1.00000E+00   0.00000E+00   0.00000E+00   0.00000E+00
     9     10     11   4.78900E-01   0.00000E+00   0.00000E+00   9.00000E+00   0.00000E+00   1.00000E-03   9.00000E+00   0.00000E+00   1.00000E-03   0.00000E+00   0.00000E+00             T             F   0.00000E+00   0.00000E+00   0.00000E+00   6.00000E-01   0.00000E+00   1.00000E+00   1.00000E+00   1.00000E+00   0.00000E+00   0.00000E+00   0.00000E+00   6.00000E-01   0.00000E+00   1.00000E+00   1.00000E+00   1.00000E+00   0.00000E+00   0.00000E+00   0.00000E+00
    10     11     12   4.78900E-01   0.00000E+00   0.00000E+00   9.00000E+00   0.00000E+00   1.00000E-03   9.00000E+00   0.00000E+00   1.00000E-03   0.00000E+00   0.00000E+00             T             F   0.00000E+00   0.00000E+00   0.00000E+00   6.00000E-01   0.00000E+00   1.00000E+00   1.00000E+00   1.00000E+00   0.00000E+00   0.00000E+00   0.00000E+00   6.00000E-01   0.00000E+00   1.00000E+00   1.00000E+00   1.00000E+00   0.00000E+00   0.00000E+00   0.00000E+00
    11     12     13   4.78900E-01   0.00000E+00   0.00000E+00   9.00000E+00   0.00000E+00   1.00000E-03   9.00000E+00   0.00000E+00   1.00000E-03   0.00000E+00   0.00000E+00             T             F   0.00000E+00   0.00000E+00   0.00000E+00   6.00000E-01   0.00000E+00   1.00000E+00   1.00000E+00   1.00000E+00   0.00000E+00   0.00000E+00   0.00000E+00   6.00000E-01   0.00000E+00   1.00000E+00   1.00000E+00   1.00000E+00   0.00000E+00   0.00000E+00   0.00000E+00
    12     13     14   4.78900E-01   0.00000E+00   0.00000E+00   9.00000E+00   0.00000E+00   1.00000E-03   9.00000E+00   0.00000E+00   1.00000E-03   0.00000E+00   0.00000E+00             T             F   0.00000E+00   0.00000E+00   0.00000E+00   6.00000E-01   0.00000E+00   1.00000E+00   1.00000E+00   1.00000E+00   0.00000E+00   0.00000E+00   0.00000E+00   6.00000E-01   0.00000E+00   1.00000E+00   1.00000E+00   1.00000E+00   0.00000E+00   0.00000E+00   0.00000E+00
    13     14     15   4.78900E-01   0.00000E+00   0.00000E+00   9.00000E+00   0.00000E+00   1.00000E-03   9.00000E+00   0.00000E+00   1.00000E-03   0.00000E+00   0.00000E+00             T             F   0.00000E+00   0.00000E+00   0.00000E+00   6.00000E-01   0.00000E+00   1.00000E+00   1.00000E+00   1.00000E+00   0.00000E+00   0.00000E+00   0.00000E+00   6.00000E-01   0.00000E+00   1.00000E+00   1.00000E+00   1.00000E+00   0.00000E+00   0.00000E+00   0.00000E+00
    14     15     16   4.78900E-01   0.00000E+00   0.00000E+00   9.00000E+00   0.00000E+00   1.00000E-03   9.00000E+00   0.00000E+00   1.00000E-03   0.00000E+00   0.00000E+00             T             F   0.00000E+00   0.00000E+00   0.00000E+00   6.00000E-01   0.00000E+00   1.00000E+00   1.00000E+00   1.00000E+00   0.00000E+00   0.00000E+00   0.00000E+00   6.00000E-01   0.00000E+00   1.00000E+00   1.00000E+00   1.00000E+00   0.00000E+00   0.00000E+00   0.00000E+00
    15     16     17   4.78900E-01   0.00000E+00   0.00000E+00   9.00000E+00   0.00000E+00   1.00000E-03   9.00000E+00   0.00000E+00   1.00000E-03   0.00000E+00   0.00000E+00             T             F   0.00000E+00   0.00000E+00   0.00000E+00   6.00000E-01   0.00000E+00   1.00000E+00   1.00000E+00   1.00000E+00   0.00000E+00   0.00000E+00   0.00000E+00   6.00000E-01   0.00000E+00   1.00000E+00   1.00000E+00   1.00000E+00   0.00000E+00   0.00000E+00   0.00000E+00
    16     17     18   4.78900E-01   0.00000E+00   0.00000E+00   9.00000E+00   0.00000E+00   1.00000E-03   9.00000E+00   0.00000E+00   1.00000E-03   0.00000E+00   0.00000E+00             T             F   0.00000E+00   0.00000E+00   0.00000E+00   6.00000E-01   0.00000E+00   1.00000E+00   1.00000E+00   1.00000E+00   0.00000E+00   0.00000E+00   0.00000E+00   6.00000E-01   0.00000E+00   1.00000E+00   1.00000E+00   1.00000E+00   0.00000E+00   0.00000E+00   0.00000E+00
    17     18     19   4.78900E-01   0.00000E+00   0.00000E+00   9.00000E+00   0.00000E+00   1.00000E-03   9.00000E+00   0.00000E+00   1.00000E-03   0.00000E+00   0.00000E+00             T             F   0.00000E+00   0.00000E+00   0.00000E+00   6.00000E-01   0.00000E+00   1.00000E+00   1.00000E+00   1.00000E+00   0.00000E+00   0.00000E+00   0.00000E+00   6.00000E-01   0.00000E+00   1.00000E+00   1.00000E+00   1.00000E+00   0.00000E+00   0.00000E+00   0.00000E+00
    18     19     20   4.78900E-01   0.00000E+00   0.00000E+00   9.00000E+00   0.00000E+00   1.00000E-03   9.00000E+00   0.00000E+00   1.00000E-03   0.00000E+00   0.00000E+00             T             F   0.00000E+00   0.00000E+00   0.00000E+00   6.00000E-01   0.00000E+00   1.00000E+00   1.00000E+00   1.00000E+00   0.00000E+00   0.00000E+00   0.00000E+00   6.00000E-01   0.00000E+00   1.00000E+00   1.00000E+00   1.00000E+00   0.00000E+00   0.00000E+00   0.00000E+00
    19     20     21   4.78900E-01   0.00000E+00   0.00000E+00   9.00000E+00   0.00000E+00   1.00000E-03   9.00000E+00   0.00000E+00   1.00000E-03   0.00000E+00   0.00000E+00             T             F   0.00000E+00   0.00000E+00   0.00000E+00   6.00000E-01   0.00000E+00   1.00000E+00   1.00000E+00   1.00000E+00   0.00000E+00   0.00000E+00   0.00000E+00   6.00000E-01   0.00000E+00   1.00000E+00   1.00000E+00   1.00000E+00   0.00000E+00   0.00000E+00   0.00000E+00
    20     21     22   4.78900E-01   0.00000E+00   0.00000E+00   9.00000E+00   0.00000E+00   1.00000E-03   9.00000E+00   0.00000E+00   1.00000E-03   0.00000E+00   0.00000E+00             T             F   0.00000E+00   0.00000E+00   0.00000E+00   6.00000E-01   0.00000E+00   1.00000E+00   1.00000E+00   1.00000E+00   0.00000E+00   0.00000E+00   0.00000E+00   6.00000E-01   0.00000E+00   1.00000E+00   1.00000E+00   1.00000E+00   0.00000E+00   0.00000E+00   0.00000E+00
    21     22     23   4.78900E-01   0.00000E+00   0.00000E+00   9.00000E+00   0.00000E+00   1.00000E-03   9.00000E+00   0.00000E+00   1.00000E-03   0.00000E+00   0.00000E+00             T             F   0.00000E+00   0.00000E+00   0.00000E+00   6.00000E-01   0.00000E+00   1.00000E+00   1.00000E+00   1.00000E+00   0.00000E+00   0.00000E+00   0.00000E+00   6.00000E-01   0.00000E+00   1.00000E+00   1.00000E+00   1.00000E+00   0.00000E+00   0.00000E+00   0.00000E+00
    22     23     24   4.78900E-01   0.00000E+00   0.00000E+00   9.00000E+00   0.00000E+00   1.00000E-03   9.00000E+00   0.00000E+00   1.00000E-03   0.00000E+00   0.00000E+00             T             F   0.00000E+00   0.00000E+00   0.00000E+00   6.00000E-01   0.00000E+00   1.00000E+00   1.00000E+00   1.00000E+00   0.00000E+00   0.00000E+00   0.00000E+00   6.00000E-01   0.00000E+00   1.00000E+00   1.00000E+00   1.00000E+00   0.00000E+00   0.00000E+00   0.00000E+00
    23     24     25   4.78900E-01   0.00000E+00   0.00000E+00   9.00000E+00   0.00000E+00   1.00000E-03   9.00000E+00   0.00000E+00   1.00000E-03   0.00000E+00   0.00000E+00             T             F   0.00000E+00   0.00000E+00   0.00000E+00   6.00000E-01   0.00000E+00   1.00000E+00   1.00000E+00   1.00000E+00   0.00000E+00   0.00000E+00   0.00000E+00   6.00000E-01   0.00000E+00   1.00000E+00   1.00000E+00   1.00000E+00   0.00000E+00   0.00000E+00   0.00000E+00
    24     25     26   4.78900E-01   0.00000E+00   0.00000E+00   9.00000E+00   0.00000E+00   1.00000E-03   9.00000E+00   0.00000E+00   1.00000E-03   0.00000E+00   0.00000E+00             T             F   0.00000E+00   0.00000E+00   0.00000E+00   6.00000E-01   0.00000E+00   1.00000E+00   1.00000E+00   1.00000E+00   0.00000E+00   0.00000E+00   0.00000E+00   6.00000E-01   0.00000E+00   1.00000E+00   1.00000E+00   1.00000E+00   0.00000E+00   0.00000E+00   0.00000E+00
    25     26     27   4.78900E-01   0.00000E+00   0.00000E+00   9.00000E+00   0.00000E+00   1.00000E-03   9.00000E+00   0.00000E+00   1.00000E-03   0.00000E+00   0.00000E+00             T             F   0.00000E+00   0.00000E+00   0.00000E+00   6.00000E-01   0.00000E+00   1.00000E+00   1.00000E+00   1.00000E+00   0.00000E+00   0.00000E+00   0.00000E+00   6.00000E-01   0.00000E+00   1.00000E+00   1.00000E+00   1.00000E+00   0.00000E+00   0.00000E+00   0.00000E+00
    26     27     28   4.78900E-01   0.00000E+00   0.00000E+00   9.00000E+00   0.00000E+00   1.00000E-03   9.00000E+00   0.00000E+00   1.00000E-03   0.00000E+00   0.00000E+00             T             F   0.00000E+00   0.00000E+00   0.00000E+00   6.00000E-01   0.00000E+00   1.00000E+00   1.00000E+00   1.00000E+00   0.00000E+00   0.00000E+00   0.00000E+00   6.00000E-01   0.00000E+00   1.00000E+00   1.00000E+00   1.00000E+00   0.00000E+00   0.00000E+00   0.00000E+00
    27     28     29   4.78900E-01   0.00000E+00   0.00000E+00   9.00000E+00   0.00000E+00   1.00000E-03   9.00000E+00   0.00000E+00   1.00000E-03   0.00000E+00   0.00000E+00             T             F   0.00000E+00   0.00000E+00   0.00000E+00   6.00000E-01   0.00000E+00   1.00000E+00   1.00000E+00   1.00000E+00   0.00000E+00   0.00000E+00   0.00000E+00   6.00000E-01   0.00000E+00   1.00000E+00   1.00000E+00   1.00000E+00   0.00000E+00   0.00000E+00   0.00000E+00
    28     29     30   4.78900E-01   0.00000E+00   0.00000E+00   9.00000E+00   0.00000E+00   1.00000E-03   9.00000E+00   0.00000E+00   1.00000E-03   0.00000E+00   0.00000E+00             T             F   0.00000E+00   0.00000E+00   0.00000E+00   6.00000E-01   0.00000E+00   1.00000E+00   1.00000E+00   1.00000E+00   0.00000E+00   0.00000E+00   0.00000E+00   6.00000E-01   0.00000E+00   1.00000E+00   1.00000E+00   1.00000E+00   0.00000E+00   0.00000E+00   0.00000E+00
    29     30     31   4.78900E-01   0.00000E+00   0.00000E+00   9.00000E+00   0.00000E+00   1.00000E-03   9.00000E+00   0.00000E+00   1.00000E-03   0.00000E+00   0.00000E+00             T             F   0.00000E+00   0.00000E+00   0.00000E+00   6.00000E-01   0.00000E+00   1.00000E+00   1.00000E+00   1.00000E+00   0.00000E+00   0.00000E+00   0.00000E+00   6.00000E-01   0.00000E+00   1.00000E+00   1.00000E+00   1.00000E+00   0.00000E+00   0.00000E+00   0.00000E+00
    30     31     32   4.78900E-01   0.00000E+00   0.00000E+00   9.00000E+00   0.00000E+00   1.00000E-03   9.00000E+00   0.00000E+00   1.00000E-03   0.00000E+00   0.00000E+00             T             F   0.00000E+00   0.00000E+00   0.00000E+00   6.00000E-01   0.00000E+00   1.00000E+00   1.00000E+00   1.00000E+00   0.00000E+00   0.00000E+00   0.00000E+00   6.00000E-01   0.00000E+00   1.00000E+00   1.00000E+00   1.00000E+00   0.00000E+00   0.00000E+00   0.00000E+00
    31     32     33   4.78900E-01   0.00000E+00   0.00000E+00   9.00000E+00   0.00000E+00   1.00000E-03   9.00000E+00   0.00000E+00   1.00000E-03   0.00000E+00   0.00000E+00             T             F   0.00000E+00   0.00000E+00   0.00000E+00   6.00000E-01   0.00000E+00   1.00000E+00   1.00000E+00   1.00000E+00   0.00000E+00   0.00000E+00   0.00000E+00   6.00000E-01   0.00000E+00   1.00000E+00   1.00000E+00   1.00000E+00   0.00000E+00   0.00000E+00   0.00000E+00
    32     33     34   4.78900E-01   0.00000E+00   0.00000E+00   9.00000E+00   0.00000E+00   1.00000E-03   9.00000E+00   0.00000E+00   1.00000E-03   0.00000E+00   0.00000E+00             T             F   0.00000E+00   0.00000E+00   0.00000E+00   6.00000E-01   0.00000E+00   1.00000E+00   1.00000E+00   1.00000E+00   0.00000E+00   0.00000E+00   0.00000E+00   6.00000E-01   0.00000E+00   1.00000E+00   1.00000E+00   1.00000E+00   0.00000E+00   0.00000E+00   0.00000E+00
    33     34     35   4.78900E-01   0.00000E+00   0.00000E+00   9.00000E+00   0.00000E+00   1.00000E-03   9.00000E+00   0.00000E+00   1.00000E-03   0.00000E+00   0.00000E+00             T             F   0.00000E+00   0.00000E+00   0.00000E+00   6.00000E-01   0.00000E+00   1.00000E+00   1.00000E+00   1.00000E+00   0.00000E+00   0.00000E+00   0.00000E+00   6.00000E-01   0.00000E+00   1.00000E+00   1.00000E+00   1.00000E+00   0.00000E+00   0.00000E+00   0.00000E+00
    34     35     36   4.78900E-01   0.00000E+00   0.00000E+00   9.00000E+00   0.00000E+00   1.00000E-03   9.00000E+00   0.00000E+00   1.00000E-03   0.00000E+00   0.00000E+00             T             F   0.00000E+00   0.00000E+00   0.00000E+00   6.00000E-01   0.00000E+00   1.00000E+00   1.00000E+00   1.00000E+00   0.00000E+00   0.00000E+00   0.00000E+00   6.00000E-01   0.00000E+00   1.00000E+00   1.00000E+00   1.00000E+00   0.00000E+00   0.00000E+00   0.00000E+00
    35     36     37   4.78900E-01   0.00000E+00   0.00000E+00   9.00000E+00   0.00000E+00   1.00000E-03   9.00000E+00   0.00000E+00   1.00000E-03   0.00000E+00   0.00000E+00             T             F   0.00000E+00   0.00000E+00   0.00000E+00   6.00000E-01   0.00000E+00   1.00000E+00   1.00000E+00   1.00000E+00   0.00000E+00   0.00000E+00   0.00000E+00   6.00000E-01   0.00000E+00   1.00000E+00   1.00000E+00   1.00000E+00   0.00000E+00   0.00000E+00   0.00000E+00
    36     37     38   4.78900E-01   0.00000E+00   0.00000E+00   9.00000E+00   0.00000E+00   1.00000E-03   9.00000E+00   0.00000E+00   1.00000E-03   0.00000E+00   0.00000E+00             T             F   0.00000E+00   0.00000E+00   0.00000E+00   6.00000E-01   0.00000E+00   1.00000E+00   1.00000E+00   1.00000E+00   0.00000E+00   0.00000E+00   0.00000E+00   6.00000E-01   0.00000E+00   1.00000E+00   1.00000E+00   1.00000E+00   0.00000E+00   0.00000E+00   0.00000E+00
    37     38     39   4.78900E-01   0.00000E+00   0.00000E+00   9.00000E+00   0.00000E+00   1.00000E-03   9.00000E+00   0.00000E+00   1.00000E-03   0.00000E+00   0.00000E+00             T             F   0.00000E+00   0.00000E+00   0.00000E+00   6.00000E-01   0.00000E+00   1.00000E+00   1.00000E+00   1.00000E+00   0.00000E+00   0.00000E+00   0.00000E+00   6.00000E-01   0.00000E+00   1.00000E+00   1.00000E+00   1.00000E+00   0.00000E+00   0.00000E+00   0.00000E+00
    38     39     40   4.78900E-01   0.00000E+00   0.00000E+00   9.00000E+00   0.00000E+00   1.00000E-03   9.00000E+00   0.00000E+00   1.00000E-03   0.00000E+00   0.00000E+00             T             F   0.00000E+00   0.00000E+00   0.00000E+00   6.00000E-01   0.00000E+00   1.00000E+00   1.00000E+00   1.00000E+00   0.00000E+00   0.00000E+00   0.00000E+00   6.00000E-01   0.00000E+00   1.00000E+00   1.00000E+00   1.00000E+00   0.00000E+00   0.00000E+00   0.00000E+00
    39     40     41   4.78900E-01   0.00000E+00   0.00000E+00   9.00000E+00   0.00000E+00   1.00000E-03   9.00000E+00   0.00000E+00   1.00000E-03   0.00000E+00   0.00000E+00             T             F   0.00000E+00   0.00000E+00   0.00000E+00   6.00000E-01   0.00000E+00   1.00000E+00   1.00000E+00   1.00000E+00   0.00000E+00   0.00000E+00   0.00000E+00   6.00000E-01   0.00000E+00   1.00000E+00   1.00000E+00   1.00000E+00   0.00000E+00   0.00000E+00   0.00000E+00
    40     41     42   4.78900E-01   0.00000E+00   0.00000E+00   9.00000E+00   0.00000E+00   1.00000E-03   9.00000E+00   0.00000E+00   1.00000E-03   0.00000E+00   0.00000E+00             T             F   0.00000E+00   0.00000E+00   0.00000E+00   6.00000E-01   0.00000E+00   1.00000E+00   1.00000E+00   1.00000E+00   0.00000E+00   0.00000E+00   0.00000E+00   6.00000E-01   0.00000E+00   1.00000E+00   1.00000E+00   1.00000E+00   0.00000E+00   0.00000E+00   0.00000E+00
    41     42     43   4.78900E-01   0.00000E+00   0.00000E+00   9.00000E+00   0.00000E+00   1.00000E-03   9.00000E+00   0.00000E+00   1.00000E-03   0.00000E+00   0.00000E+00             T             F   0.00000E+00   0.00000E+00   0.00000E+00   6.00000E-01   0.00000E+00   1.00000E+00   1.00000E+00   1.00000E+00   0.00000E+00   0.00000E+00   0.00000E+00   6.00000E-01   0.00000E+00   1.00000E+00   1.00000E+00   1.00000E+00   0.00000E+00   0.00000E+00   0.00000E+00
    42     43     44   4.78900E-01   0.00000E+00   0.00000E+00   9.00000E+00   0.00000E+00   1.00000E-03   9.00000E+00   0.00000E+00   1.00000E-03   0.00000E+00   0.00000E+00             T             F   0.00000E+00   0.00000E+00   0.00000E+00   6.00000E-01   0.00000E+00   1.00000E+00   1.00000E+00   1.00000E+00   0.00000E+00   0.00000E+00   0.00000E+00   6.00000E-01   0.00000E+00   1.00000E+00   1.00000E+00   1.00000E+00   0.00000E+00   0.00000E+00   0.00000E+00
    43     44     45   4.78900E-01   0.00000E+00   0.00000E+00   9.00000E+00   0.00000E+00   1.00000E-03   9.00000E+00   0.00000E+00   1.00000E-03   0.00000E+00   0.00000E+00             T             F   0.00000E+00   0.00000E+00   0.00000E+00   6.00000E-01   0.00000E+00   1.00000E+00   1.00000E+00   1.00000E+00   0.00000E+00   0.00000E+00   0.00000E+00   6.00000E-01   0.00000E+00   1.00000E+00   1.00000E+00   1.00000E+00   0.00000E+00   0.00000E+00   0.00000E+00
    44     45     46   4.78900E-01   0.00000E+00   0.00000E+00   9.00000E+00   0.00000E+00   1.00000E-03   9.00000E+00   0.00000E+00   1.00000E-03   0.00000E+00   0.00000E+00             T             F   0.00000E+00   0.00000E+00   0.00000E+00   6.00000E-01   0.00000E+00   1.00000E+00   1.00000E+00   1.00000E+00   0.00000E+00   0.00000E+00   0.00000E+00   6.00000E-01   0.00000E+00   1.00000E+00   1.00000E+00   1.00000E+00   0.00000E+00   0.00000E+00   0.00000E+00
    45     46     47   4.78900E-01   0.00000E+00   0.00000E+00   9.00000E+00   0.00000E+00   1.00000E-03   9.00000E+00   0.00000E+00   1.00000E-03   0.00000E+00   0.00000E+00             T             F   0.00000E+00   0.00000E+00   0.00000E+00   6.00000E-01   0.00000E+00   1.00000E+00   1.00000E+00   1.00000E+00   0.00000E+00   0.00000E+00   0.00000E+00   6.00000E-01   0.00000E+00   1.00000E+00   1.00000E+00   1.00000E+00   0.00000E+00   0.00000E+00   0.00000E+00
    46     47     48   4.78900E-01   0.00000E+00   0.00000E+00   9.00000E+00   0.00000E+00   1.00000E-03   9.00000E+00   0.00000E+00   1.00000E-03   0.00000E+00   0.00000E+00             T             F   0.00000E+00   0.00000E+00   0.00000E+00   6.00000E-01   0.00000E+00   1.00000E+00   1.00000E+00   1.00000E+00   0.00000E+00   0.00000E+00   0.00000E+00   6.00000E-01   0.00000E+00   1.00000E+00   1.00000E+00   1.00000E+00   0.00000E+00   0.00000E+00   0.00000E+00
    47     48     49   4.78900E-01   0.00000E+00   0.00000E+00   9.00000E+00   0.00000E+00   1.00000E-03   9.00000E+00   0.00000E+00   1.00000E-03   0.00000E+00   0.00000E+00             T             F   0.00000E+00   0.00000E+00   0.00000E+00   6.00000E-01   0.00000E+00   1.00000E+00   1.00000E+00   1.00000E+00   0.00000E+00   0.00000E+00   0.00000E+00   6.00000E-01   0.00000E+00   1.00000E+00   1.00000E+00   1.00000E+00   0.00000E+00   0.00000E+00   0.00000E+00
    48     49     50   4.78900E-01   0.00000E+00   0.00000E+00   9.00000E+00   0.00000E+00   1.00000E-03   9.00000E+00   0.00000E+00   1.00000E-03   0.00000E+00   0.00000E+00             T             F   0.00000E+00   0.00000E+00   0.00000E+00   6.00000E-01   0.00000E+00   1.00000E+00   1.00000E+00   1.00000E+00   0.00000E+00   0.00000E+00   0.00000E+00   6.00000E-01   0.00000E+00   1.00000E+00   1.00000E+00   1.00000E+00   0.00000E+00   0.00000E+00   0.00000E+00
    49     50     51   4.78900E-01   0.00000E+00   0.00000E+00   9.00000E+00   0.00000E+00   1.00000E-03   9.00000E+00   0.00000E+00   1.00000E-03   0.00000E+00   0.00000E+00             T             F   0.00000E+00   0.00000E+00   0.00000E+00   6.00000E-01   0.00000E+00   1.00000E+00   1.00000E+00   1.00000E+00   0.00000E+00   0.00000E+00   0.00000E+00   6.00000E-01   0.00000E+00   1.00000E+00   1.00000E+00   1.00000E+00   0.00000E+00   0.00000E+00   0.00000E+00
    50     51     52   4.78900E-01   0.00000E+00   0.00000E+00   9.00000E+00   0.00000E+00   1.00000E-03   9.00000E+00   0.00000E+00   1.00000E-03   0.00000E+00   0.00000E+00             T             F   0.00000E+00   0.00000E+00   0.00000E+00   6.00000E-01   0.00000E+00   1.00000E+00   1.00000E+00   1.00000E+00   0.00000E+00   0.00000E+00   0.00000E+00   6.00000E-01   0.00000E+00   1.00000E+00   1.00000E+00   1.00000E+00   0.00000E+00   0.00000E+00   0.00000E+00
    51     52     53   4.78900E-01   0.00000E+00   0.00000E+00   9.00000E+00   0.00000E+00   1.00000E-03   9.00000E+00   0.00000E+00   1.00000E-03   0.00000E+00   0.00000E+00             T             F   0.00000E+00   0.00000E+00   0.00000E+00   6.00000E-01   0.00000E+00   1.00000E+00   1.00000E+00   1.00000E+00   0.00000E+00   0.00000E+00   0.00000E+00   6.00000E-01   0.00000E+00   1.00000E+00   1.00000E+00   1.00000E+00   0.00000E+00   0.00000E+00   0.00000E+00
    52     53     54   4.78900E-01   0.00000E+00   0.00000E+00   9.00000E+00   0.00000E+00   1.00000E-03   9.00000E+00   0.00000E+00   1.00000E-03   0.00000E+00   0.00000E+00             T             F   0.00000E+00   0.00000E+00   0.00000E+00   6.00000E-01   0.00000E+00   1.00000E+00   1.00000E+00   1.00000E+00   0.00000E+00   0.00000E+00   0.00000E+00   6.00000E-01   0.00000E+00   1.00000E+00   1.00000E+00   1.00000E+00   0.00000E+00   0.00000E+00   0.00000E+00
    53     54     55   4.78900E-01   0.00000E+00   0.00000E+00   9.00000E+00   0.00000E+00   1.00000E-03   9.00000E+00   0.00000E+00   1.00000E-03   0.00000E+00   0.00000E+00             T             F   0.00000E+00   0.00000E+00   0.00000E+00   6.00000E-01   0.00000E+00   1.00000E+00   1.00000E+00   1.00000E+00   0.00000E+00   0.00000E+00   0.00000E+00   6.00000E-01   0.00000E+00   1.00000E+00   1.00000E+00   1.00000E+00   0.00000E+00   0.00000E+00   0.00000E+00
    54     55     56   4.78900E-01   0.00000E+00   0.00000E+00   9.00000E+00   0.00000E+00   1.00000E-03   9.00000E+00   0.00000E+00   1.00000E-03   0.00000E+00   0.00000E+00             T             F   0.00000E+00   0.00000E+00   0.00000E+00   6.00000E-01   0.00000E+00   1.00000E+00   1.00000E+00   1.00000E+00   0.00000E+00   0.00000E+00   0.00000E+00   6.00000E-01   0.00000E+00   1.00000E+00   1.00000E+00   1.00000E+00   0.00000E+00   0.00000E+00   0.00000E+00
    55     56     57   4.78900E-01   0.00000E+00   0.00000E+00   9.00000E+00   0.00000E+00   1.00000E-03   9.00000E+00   0.00000E+00   1.00000E-03   0.00000E+00   0.00000E+00             T             F   0.00000E+00   0.00000E+00   0.00000E+00   6.00000E-01   0.00000E+00   1.00000E+00   1.00000E+00   1.00000E+00   0.00000E+00   0.00000E+00   0.00000E+00   6.00000E-01   0.00000E+00   1.00000E+00   1.00000E+00   1.00000E+00   0.00000E+00   0.00000E+00   0.00000E+00
    56     57     58   4.78900E-01   0.00000E+00   0.00000E+00   9.00000E+00   0.00000E+00   1.00000E-03   9.00000E+00   0.00000E+00   1.00000E-03   0.00000E+00   0.00000E+00             T             F   0.00000E+00   0.00000E+00   0.00000E+00   6.00000E-01   0.00000E+00   1.00000E+00   1.00000E+00   1.00000E+00   0.00000E+00   0.00000E+00   0.00000E+00   6.00000E-01   0.00000E+00   1.00000E+00   1.00000E+00   1.00000E+00   0.00000E+00   0.00000E+00   0.00000E+00
    57     58     59   4.78900E-01   0.00000E+00   0.00000E+00   9.00000E+00   0.00000E+00   1.00000E-03   9.00000E+00   0.00000E+00   1.00000E-03   0.00000E+00   0.00000E+00             T             F   0.00000E+00   0.00000E+00   0.00000E+00   6.00000E-01   0.00000E+00   1.00000E+00   1.00000E+00   1.00000E+00   0.00000E+00   0.00000E+00   0.00000E+00   6.00000E-01   0.00000E+00   1.00000E+00   1.00000E+00   1.00000E+00   0.00000E+00   0.00000E+00   0.00000E+00
    58     59     60   4.78900E-01   0.00000E+00   0.00000E+00   9.00000E+00   0.00000E+00   1.00000E-03   9.00000E+00   0.00000E+00   1.00000E-03   0.00000E+00   0.00000E+00             T             F   0.00000E+00   0.00000E+00   0.00000E+00   6.00000E-01   0.00000E+00   1.00000E+00   1.00000E+00   1.00000E+00   0.00000E+00   0.00000E+00   0.00000E+00   6.00000E-01   0.00000E+00   1.00000E+00   1.00000E+00   1.00000E+00   0.00000E+00   0.00000E+00   0.00000E+00
    59     60     61   4.78900E-01   0.00000E+00   0.00000E+00   9.00000E+00   0.00000E+00   1.00000E-03   9.00000E+00   0.00000E+00   1.00000E-03   0.00000E+00   0.00000E+00             T             F   0.00000E+00   0.00000E+00   0.00000E+00   6.00000E-01   0.00000E+00   1.00000E+00   1.00000E+00   1.00000E+00   0.00000E+00   0.00000E+00   0.00000E+00   6.00000E-01   0.00000E+00   1.00000E+00   1.00000E+00   1.00000E+00   0.00000E+00   0.00000E+00   0.00000E+00
    60     61     62   4.78900E-01   0.00000E+00   0.00000E+00   9.00000E+00   0.00000E+00   1.00000E-03   9.00000E+00   0.00000E+00   1.00000E-03   0.00000E+00   0.00000E+00             T             F   0.00000E+00   0.00000E+00   0.00000E+00   6.00000E-01   0.00000E+00   1.00000E+00   1.00000E+00   1.00000E+00   0.00000E+00   0.00000E+00   0.00000E+00   6.00000E-01   0.00000E+00   1.00000E+00   1.00000E+00   1.00000E+00   0.00000E+00   0.00000E+00   0.00000E+00
    61     62     63   4.78900E-01   0.00000E+00   0.00000E+00   9.00000E+00   0.00000E+00   1.00000E-03   9.00000E+00   0.00000E+00   1.00000E-03   0.00000E+00   0.00000E+00             T             F   0.00000E+00   0.00000E+00   0.00000E+00   6.00000E-01   0.00000E+00   1.00000E+00   1.00000E+00   1.00000E+00   0.00000E+00   0.00000E+00   0.00000E+00   6.00000E-01   0.00000E+00   1.00000E+00   1.00000E+00   1.00000E+00   0.00000E+00   0.00000E+00   0.00000E+00
    62     63     64   4.78900E-01   0.00000E+00   0.00000E+00   9.00000E+00   0.00000E+00   1.00000E-03   9.00000E+00   0.00000E+00   1.00000E-03   0.00000E+00   0.00000E+00             T             F   0.00000E+00   0.00000E+00   0.00000E+00   6.00000E-01   0.00000E+00   1.00000E+00   1.00000E+00   1.00000E+00   0.00000E+00   0.00000E+00   0.00000E+00   6.00000E-01   0.00000E+00   1.00000E+00   1.00000E+00   1.00000E+00   0.00000E+00   0.00000E+00   0.00000E+00
    63     64     65   4.78900E-01   0.00000E+00   0.00000E+00   9.00000E+00   0.00000E+00   1.00000E-03   9.00000E+00   0.00000E+00   1.00000E-03   0.00000E+00   0.00000E+00             T             F   0.00000E+00   0.00000E+00   0.00000E+00   6.00000E-01   0.00000E+00   1.00000E+00   1.00000E+00   1.00000E+00   0.00000E+00   0.00000E+00   0.00000E+00   6.00000E-01   0.00000E+00   1.00000E+00   1.00000E+00   1.00000E+00   0.00000E+00   0.00000E+00   0.00000E+00
    64     65     66   4.78900E-01   0.00000E+00   0.00000E+00   9.00000E+00   0.00000E+00   1.00000E-03   9.00000E+00   0.00000E+00   1.00000E-03   0.00000E+00   0.00000E+00             T             F   0.00000E+00   0.00000E+00   0.00000E+00   6.00000E-01   0.00000E+00   1.00000E+00   1.00000E+00   1.00000E+00   0.00000E+00   0.00000E+00   0.00000E+00   6.00000E-01   0.00000E+00   1.00000E+00   1.00000E+00   1.00000E+00   0.00000E+00   0.00000E+00   0.00000E+00
    65     66     67   4.78900E-01   0.00000E+00   0.00000E+00   9.00000E+00   0.00000E+00   1.00000E-03   9.00000E+00   0.00000E+00   1.00000E-03   0.00000E+00   0.00000E+00             T             F   0.00000E+00   0.00000E+00   0.00000E+00   6.00000E-01   0.00000E+00   1.00000E+00   1.00000E+00   1.00000E+00   0.00000E+00   0.00000E+00   0.00000E+00   6.00000E-01   0.00000E+00   1.00000E+00   1.00000E+00   1.00000E+00   0.00000E+00   0.00000E+00   0.00000E+00
    66     67     68   4.78900E-01   0.00000E+00   0.00000E+00   9.00000E+00   0.00000E+00   1.00000E-03   9.00000E+00   0.00000E+00   1.00000E-03   0.00000E+00   0.00000E+00             T             F   0.00000E+00   0.00000E+00   0.00000E+00   6.00000E-01   0.00000E+00   1.00000E+00   1.00000E+00   1.00000E+00   0.00000E+00   0.00000E+00   0.00000E+00   6.00000E-01   0.00000E+00   1.00000E+00   1.00000E+00   1.00000E+00   0.00000E+00   0.00000E+00   0.00000E+00
    67     68     69   4.78900E-01   0.00000E+00   0.00000E+00   9.00000E+00   0.00000E+00   1.00000E-03   9.00000E+00   0.00000E+00   1.00000E-03   0.00000E+00   0.00000E+00             T             F   0.00000E+00   0.00000E+00   0.00000E+00   6.00000E-01   0.00000E+00   1.00000E+00   1.00000E+00   1.00000E+00   0.00000E+00   0.00000E+00   0.00000E+00   6.00000E-01   0.00000E+00   1.00000E+00   1.00000E+00   1.00000E+00   0.00000E+00   0.00000E+00   0.00000E+00
    68     69     70   4.78900E-01   0.00000E+00   0.00000E+00   9.00000E+00   0.00000E+00   1.00000E-03   9.00000E+00   0.00000E+00   1.00000E-03   0.00000E+00   0.00000E+00             T             F   0.00000E+00   0.00000E+00   0.00000E+00   6.00000E-01   0.00000E+00   1.00000E+00   1.00000E+00   1.00000E+00   0.00000E+00   0.00000E+00   0.00000E+00   6.00000E-01   0.00000E+00   1.00000E+00   1.00000E+00   1.00000E+00   0.00000E+00   0.00000E+00   0.00000E+00
    69     70     71   4.78900E-01   0.00000E+00   0.00000E+00   9.00000E+00   0.00000E+00   1.00000E-03   9.00000E+00   0.00000E+00   1.00000E-03   0.00000E+00   0.00000E+00             T             F   0.00000E+00   0.00000E+00   0.00000E+00   6.00000E-01   0.00000E+00   1.00000E+00   1.00000E+00   1.00000E+00   0.00000E+00   0.00000E+00   0.00000E+00   6.00000E-01   0.00000E+00   1.00000E+00   1.00000E+00   1.00000E+00   0.00000E+00   0.00000E+00   0.00000E+00
    70     71     72   4.78900E-01   0.00000E+00   0.00000E+00   9.00000E+00   0.00000E+00   1.00000E-03   9.00000E+00   0.00000E+00   1.00000E-03   0.00000E+00   0.00000E+00             T             F   0.00000E+00   0.00000E+00   0.00000E+00   6.00000E-01   0.00000E+00   1.00000E+00   1.00000E+00   1.00000E+00   0.00000E+00   0.00000E+00   0.00000E+00   6.00000E-01   0.00000E+00   1.00000E+00   1.00000E+00   1.00000E+00   0.00000E+00   0.00000E+00   0.00000E+00
    71     72     73   4.78900E-01   0.00000E+00   0.00000E+00   9.00000E+00   0.00000E+00   1.00000E-03   9.00000E+00   0.00000E+00   1.00000E-03   0.00000E+00   0.00000E+00             T             F   0.00000E+00   0.00000E+00   0.00000E+00   6.00000E-01   0.00000E+00   1.00000E+00   1.00000E+00   1.00000E+00   0.00000E+00   0.00000E+00   0.00000E+00   6.00000E-01   0.00000E+00   1.00000E+00   1.00000E+00   1.00000E+00   0.00000E+00   0.00000E+00   0.00000E+00
    72     73     74   4.78900E-01   0.00000E+00   0.00000E+00   9.00000E+00   0.00000E+00   1.00000E-03   9.00000E+00   0.00000E+00   1.00000E-03   0.00000E+00   0.00000E+00             T             F   0.00000E+00   0.00000E+00   0.00000E+00   6.00000E-01   0.00000E+00   1.00000E+00   1.00000E+00   1.00000E+00   0.00000E+00   0.00000E+00   0.00000E+00   6.00000E-01   0.00000E+00   1.00000E+00   1.00000E+00   1.00000E+00   0.00000E+00   0.00000E+00   0.00000E+00
    73     74     75   4.78900E-01   0.00000E+00   0.00000E+00   9.00000E+00   0.00000E+00   1.00000E-03   9.00000E+00   0.00000E+00   1.00000E-03   0.00000E+00   0.00000E+00             T             F   0.00000E+00   0.00000E+00   0.00000E+00   6.00000E-01   0.00000E+00   1.00000E+00   1.00000E+00   1.00000E+00   0.00000E+00   0.00000E+00   0.00000E+00   6.00000E-01   0.00000E+00   1.00000E+00   1.00000E+00   1.00000E+00   0.00000E+00   0.00000E+00   0.00000E+00
    74     75     76   4.78900E-01   0.00000E+00   0.00000E+00   9.00000E+00   0.00000E+00   1.00000E-03   9.00000E+00   0.00000E+00   1.00000E-03   0.00000E+00   0.00000E+00             T             F   0.00000E+00   0.00000E+00   0.00000E+00   6.00000E-01   0.00000E+00   1.00000E+00   1.00000E+00   1.00000E+00   0.00000E+00   0.00000E+00   0.00000E+00   6.00000E-01   0.00000E+00   1.00000E+00   1.00000E+00   1.00000E+00   0.00000E+00   0.00000E+00   0.00000E+00
    75     76     77   4.78900E-01   0.00000E+00   0.00000E+00   9.00000E+00   0.00000E+00   1.00000E-03   9.00000E+00   0.00000E+00   1.00000E-03   0.00000E+00   0.00000E+00             T             F   0.00000E+00   0.00000E+00   0.00000E+00   6.00000E-01   0.00000E+00   1.00000E+00   1.00000E+00   1.00000E+00   0.00000E+00   0.00000E+00   0.00000E+00   6.00000E-01   0.00000E+00   1.00000E+00   1.00000E+00   1.00000E+00   0.00000E+00   0.00000E+00   0.00000E+00
    76     77     78   4.78900E-01   0.00000E+00   0.00000E+00   9.00000E+00   0.00000E+00   1.00000E-03   9.00000E+00   0.00000E+00   1.00000E-03   0.00000E+00   0.00000E+00             T             F   0.00000E+00   0.00000E+00   0.00000E+00   6.00000E-01   0.00000E+00   1.00000E+00   1.00000E+00   1.00000E+00   0.00000E+00   0.00000E+00   0.00000E+00   6.00000E-01   0.00000E+00   1.00000E+00   1.00000E+00   1.00000E+00   0.00000E+00   0.00000E+00   0.00000E+00
    77     78     79   4.78900E-01   0.00000E+00   0.00000E+00   9.00000E+00   0.00000E+00   1.00000E-03   9.00000E+00   0.00000E+00   1.00000E-03   0.00000E+00   0.00000E+00             T             F   0.00000E+00   0.00000E+00   0.00000E+00   6.00000E-01   0.00000E+00   1.00000E+00   1.00000E+00   1.00000E+00   0.00000E+00   0.00000E+00   0.00000E+00   6.00000E-01   0.00000E+00   1.00000E+00   1.00000E+00   1.00000E+00   0.00000E+00   0.00000E+00   0.00000E+00
    78     79     80   4.78900E-01   0.00000E+00   0.00000E+00   9.00000E+00   0.00000E+00   1.00000E-03   9.00000E+00   0.00000E+00   1.00000E-03   0.00000E+00   0.00000E+00             T             F   0.00000E+00   0.00000E+00   0.00000E+00   6.00000E-01   0.00000E+00   1.00000E+00   1.00000E+00   1.00000E+00   0.00000E+00   0.00000E+00   0.00000E+00   6.00000E-01   0.00000E+00   1.00000E+00   1.00000E+00   1.00000E+00   0.00000E+00   0.00000E+00   0.00000E+00
    79     80     81   4.78900E-01   0.00000E+00   0.00000E+00   9.00000E+00   0.00000E+00   1.00000E-03   9.00000E+00   0.00000E+00   1.00000E-03   0.00000E+00   0.00000E+00             T             F   0.00000E+00   0.00000E+00   0.00000E+00   6.00000E-01   0.00000E+00   1.00000E+00   1.00000E+00   1.00000E+00   0.00000E+00   0.00000E+00   0.00000E+00   6.00000E-01   0.00000E+00   1.00000E+00   1.00000E+00   1.00000E+00   0.00000E+00   0.00000E+00   0.00000E+00
    80     81     82   4.78900E-01   0.00000E+00   0.00000E+00   9.00000E+00   0.00000E+00   1.00000E-03   9.00000E+00   0.00000E+00   1.00000E-03   0.00000E+00   0.00000E+00             T             F   0.00000E+00   0.00000E+00   0.00000E+00   6.00000E-01   0.00000E+00   1.00000E+00   1.00000E+00   1.00000E+00   0.00000E+00   0.00000E+00   0.00000E+00   6.00000E-01   0.00000E+00   1.00000E+00   1.00000E+00   1.00000E+00   0.00000E+00   0.00000E+00   0.00000E+00
    81     82     83   4.78900E-01   0.00000E+00   0.00000E+00   9.00000E+00   0.00000E+00   1.00000E-03   9.00000E+00   0.00000E+00   1.00000E-03   0.00000E+00   0.00000E+00             T             F   0.00000E+00   0.00000E+00   0.00000E+00   6.00000E-01   0.00000E+00   1.00000E+00   1.00000E+00   1.00000E+00   0.00000E+00   0.00000E+00   0.00000E+00   6.00000E-01   0.00000E+00   1.00000E+00   1.00000E+00   1.00000E+00   0.00000E+00   0.00000E+00   0.00000E+00
    82     83     84   4.78900E-01   0.00000E+00   0.00000E+00   9.00000E+00   0.00000E+00   1.00000E-03   9.00000E+00   0.00000E+00   1.00000E-03   0.00000E+00   0.00000E+00             T             F   0.00000E+00   0.00000E+00   0.00000E+00   6.00000E-01   0.00000E+00   1.00000E+00   1.00000E+00   1.00000E+00   0.00000E+00   0.00000E+00   0.00000E+00   6.00000E-01   0.00000E+00   1.00000E+00   1.00000E+00   1.00000E+00   0.00000E+00   0.00000E+00   0.00000E+00
    83     84     85   4.78900E-01   0.00000E+00   0.00000E+00   9.00000E+00   0.00000E+00   1.00000E-03   9.00000E+00   0.00000E+00   1.00000E-03   0.00000E+00   0.00000E+00             T             F   0.00000E+00   0.00000E+00   0.00000E+00   6.00000E-01   0.00000E+00   1.00000E+00   1.00000E+00   1.00000E+00   0.00000E+00   0.00000E+00   0.00000E+00   6.00000E-01   0.00000E+00   1.00000E+00   1.00000E+00   1.00000E+00   0.00000E+00   0.00000E+00   0.00000E+00
    84     85     86   4.78900E-01   0.00000E+00   0.00000E+00   9.00000E+00   0.00000E+00   1.00000E-03   9.00000E+00   0.00000E+00   1.00000E-03   0.00000E+00   0.00000E+00             T             F   0.00000E+00   0.00000E+00   0.00000E+00   6.00000E-01   0.00000E+00   1.00000E+00   1.00000E+00   1.00000E+00   0.00000E+00   0.00000E+00   0.00000E+00   6.00000E-01   0.00000E+00   1.00000E+00   1.00000E+00   1.00000E+00   0.00000E+00   0.00000E+00   0.00000E+00
    85     86     87   4.78900E-01   0.00000E+00   0.00000E+00   9.00000E+00   0.00000E+00   1.00000E-03   9.00000E+00   0.00000E+00   1.00000E-03   0.00000E+00   0.00000E+00             T             F   0.00000E+00   0.00000E+00   0.00000E+00   6.00000E-01   0.00000E+00   1.00000E+00   1.00000E+00   1.00000E+00   0.00000E+00   0.00000E+00   0.00000E+00   6.00000E-01   0.00000E+00   1.00000E+00   1.00000E+00   1.00000E+00   0.00000E+00   0.00000E+00   0.00000E+00
    86     87     88   4.78900E-01   0.00000E+00   0.00000E+00   9.00000E+00   0.00000E+00   1.00000E-03   9.00000E+00   0.00000E+00   1.00000E-03   0.00000E+00   0.00000E+00             T             F   0.00000E+00   0.00000E+00   0.00000E+00   6.00000E-01   0.00000E+00   1.00000E+00   1.00000E+00   1.00000E+00   0.00000E+00   0.00000E+00   0.00000E+00   6.00000E-01   0.00000E+00   1.00000E+00   1.00000E+00   1.00000E+00   0.00000E+00   0.00000E+00   0.00000E+00
    87     88     89   4.78900E-01   0.00000E+00   0.00000E+00   9.00000E+00   0.00000E+00   1.00000E-03   9.00000E+00   0.00000E+00   1.00000E-03   0.00000E+00   0.00000E+00             T             F   0.00000E+00   0.00000E+00   0.00000E+00   6.00000E-01   0.00000E+00   1.00000E+00   1.00000E+00   1.00000E+00   0.00000E+00   0.00000E+00   0.00000E+00   6.00000E-01   0.00000E+00   1.00000E+00   1.00000E+00   1.00000E+00   0.00000E+00   0.00000E+00   0.00000E+00
    88     89     90   4.78900E-01   0.00000E+00   0.00000E+00   9.00000E+00   0.00000E+00   1.00000E-03   9.00000E+00   0.00000E+00   1.00000E-03   0.00000E+00   0.00000E+00             T             F   0.00000E+00   0.00000E+00   0.00000E+00   6.00000E-01   0.00000E+00   1.00000E+00   1.00000E+00   1.00000E+00   0.00000E+00   0.00000E+00   0.00000E+00   6.00000E-01   0.00000E+00   1.00000E+00   1.00000E+00   1.00000E+00   0.00000E+00   0.00000E+00   0.00000E+00
    89     90     91   4.78900E-01   0.00000E+00   0.00000E+00   9.00000E+00   0.00000E+00   1.00000E-03   9.00000E+00   0.00000E+00   1.00000E-03   0.00000E+00   0.00000E+00             T             F   0.00000E+00   0.00000E+00   0.00000E+00   6.00000E-01   0.00000E+00   1.00000E+00   1.00000E+00   1.00000E+00   0.00000E+00   0.00000E+00   0.00000E+00   6.00000E-01   0.00000E+00   1.00000E+00   1.00000E+00   1.00000E+00   0.00000E+00   0.00000E+00   0.00000E+00
    90     91     92   4.78900E-01   0.00000E+00   0.00000E+00   9.00000E+00   0.00000E+00   1.00000E-03   9.00000E+00   0.00000E+00   1.00000E-03   0.00000E+00   0.00000E+00             T             F   0.00000E+00   0.00000E+00   0.00000E+00   6.00000E-01   0.00000E+00   1.00000E+00   1.00000E+00   1.00000E+00   0.00000E+00   0.00000E+00   0.00000E+00   6.00000E-01   0.00000E+00   1.00000E+00   1.00000E+00   1.00000E+00   0.00000E+00   0.00000E+00   0.00000E+00
    91     92     93   4.78900E-01   0.00000E+00   0.00000E+00   9.00000E+00   0.00000E+00   1.00000E-03   9.00000E+00   0.00000E+00   1.00000E-03   0.00000E+00   0.00000E+00             T             F   0.00000E+00   0.00000E+00   0.00000E+00   6.00000E-01   0.00000E+00   1.00000E+00   1.00000E+00   1.00000E+00   0.00000E+00   0.00000E+00   0.00000E+00   6.00000E-01   0.00000E+00   1.00000E+00   1.00000E+00   1.00000E+00   0.00000E+00   0.00000E+00   0.00000E+00
    92     93     94   4.78900E-01   0.00000E+00   0.00000E+00   9.00000E+00   0.00000E+00   1.00000E-03   9.00000E+00   0.00000E+00   1.00000E-03   0.00000E+00   0.00000E+00             T             F   0.00000E+00   0.00000E+00   0.00000E+00   6.00000E-01   0.00000E+00   1.00000E+00   1.00000E+00   1.00000E+00   0.00000E+00   0.00000E+00   0.00000E+00   6.00000E-01   0.00000E+00   1.00000E+00   1.00000E+00   1.00000E+00   0.00000E+00   0.00000E+00   0.00000E+00
    93     94     95   4.78900E-01   0.00000E+00   0.00000E+00   9.00000E+00   0.00000E+00   1.00000E-03   9.00000E+00   0.00000E+00   1.00000E-03   0.00000E+00   0.00000E+00             T             F   0.00000E+00   0.00000E+00   0.00000E+00   6.00000E-01   0.00000E+00   1.00000E+00   1.00000E+00   1.00000E+00   0.00000E+00   0.00000E+00   0.00000E+00   6.00000E-01   0.00000E+00   1.00000E+00   1.00000E+00   1.00000E+00   0.00000E+00   0.00000E+00   0.00000E+00
[...]
       4752   0.59400E+02       1.01579E+03       0.00000E+00       0.00000E+00       0.00000E+00      -1.08373E+03       0.00000E+00       1.01563E+03       0.00000E+00       1.08331E+03       0.00000E+00       0.00000E+00      -3.59975E+01       0.00000E+00       0.00000E+00       0.00000E+00       3.07883E+03       0.00000E+00       0.00000E+00       3.07200E+03       0.00000E+00       6.97153E-09
       4753   0.59413E+02       1.00685E+03       0.00000E+00       0.00000E+00       0.00000E+00      -1.09039E+03       0.00000E+00       1.00619E+03       0.00000E+00       1.07857E+03       0.00000E+00       0.00000E+00      -3.60282E+01       0.00000E+00       0.00000E+00       0.00000E+00       2.96713E+03       0.00000E+00       0.00000E+00       2.91328E+03       0.00000E+00       6.89648E-09
       4754   0.59425E+02       9.89387E+02       0.00000E+00       0.00000E+00       0.00000E+00      -1.05813E+03       0.00000E+00       9.89333E+02       0.00000E+00       1.05643E+03       0.00000E+00       0.00000E+00      -3.59971E+01       0.00000E+00       0.00000E+00       0.00000E+00       3.09248E+03       0.00000E+00       0.00000E+00       3.08565E+03       0.00000E+00       6.79357E-09
       4755   0.59438E+02       9.72680E+02       0.00000E+00       0.00000E+00       0.00000E+00      -1.05616E+03       0.00000E+00       9.72010E+02       0.00000E+00       1.04424E+03       0.00000E+00       0.00000E+00      -3.60280E+01       0.00000E+00       0.00000E+00       0.00000E+00       2.95604E+03       0.00000E+00       0.00000E+00       2.90283E+03       0.00000E+00       6.66504E-09
       4756   0.59450E+02       9.47573E+02       0.00000E+00       0.00000E+00       0.00000E+00      -1.01547E+03       0.00000E+00       9.47413E+02       0.00000E+00       1.01376E+03       0.00000E+00       0.00000E+00      -3.59971E+01       0.00000E+00       0.00000E+00       0.00000E+00       3.05835E+03       0.00000E+00       0.00000E+00       3.05835E+03       0.00000E+00       6.50958E-09
       4757   0.59463E+02       9.23207E+02       0.00000E+00       0.00000E+00       0.00000E+00      -1.00611E+03       0.00000E+00       9.22573E+02       0.00000E+00       9.94158E+02       0.00000E+00       0.00000E+00      -3.60277E+01       0.00000E+00       0.00000E+00       0.00000E+00       2.92927E+03       0.00000E+00       0.00000E+00       2.87232E+03       0.00000E+00       6.32958E-09
       4758   0.59475E+02       8.90613E+02       0.00000E+00       0.00000E+00       0.00000E+00      -9.59147E+02       0.00000E+00       8.90560E+02       0.00000E+00       9.56587E+02       0.00000E+00       0.00000E+00      -3.59967E+01       0.00000E+00       0.00000E+00       0.00000E+00       3.01739E+03       0.00000E+00       0.00000E+00       3.01739E+03       0.00000E+00       6.12396E-09
       4759   0.59488E+02       8.59234E+02       0.00000E+00       0.00000E+00       0.00000E+00      -9.41483E+02       0.00000E+00       8.58610E+02       0.00000E+00       9.29238E+02       0.00000E+00       0.00000E+00      -3.60275E+01       0.00000E+00       0.00000E+00       0.00000E+00       2.88084E+03       0.00000E+00       0.00000E+00       2.82432E+03       0.00000E+00       5.89531E-09
       4760   0.59500E+02       8.19733E+02       0.00000E+00       0.00000E+00       0.00000E+00      -8.85760E+02       0.00000E+00       8.19733E+02       0.00000E+00       8.84907E+02       0.00000E+00       0.00000E+00      -3.59963E+01       0.00000E+00       0.00000E+00       0.00000E+00       2.95595E+03       0.00000E+00       0.00000E+00       2.94912E+03       0.00000E+00       5.64275E-09
       4761   0.59513E+02       7.81727E+02       0.00000E+00       0.00000E+00       0.00000E+00      -8.62870E+02       0.00000E+00       7.81137E+02       0.00000E+00       8.50438E+02       0.00000E+00       0.00000E+00      -3.60274E+01       0.00000E+00       0.00000E+00       0.00000E+00       2.81209E+03       0.00000E+00       0.00000E+00       2.75296E+03       0.00000E+00       5.36904E-09
       4762   0.59525E+02       7.35947E+02       0.00000E+00       0.00000E+00       0.00000E+00      -8.00427E+02       0.00000E+00       7.35893E+02       0.00000E+00       7.99573E+02       0.00000E+00       0.00000E+00      -3.59958E+01       0.00000E+00       0.00000E+00       0.00000E+00       2.87403E+03       0.00000E+00       0.00000E+00       2.88085E+03       0.00000E+00       5.07347E-09
       4763   0.59538E+02       6.91930E+02       0.00000E+00       0.00000E+00       0.00000E+00      -7.71497E+02       0.00000E+00       6.91350E+02       0.00000E+00       7.59225E+02       0.00000E+00       0.00000E+00      -3.60274E+01       0.00000E+00       0.00000E+00       0.00000E+00       2.72676E+03       0.00000E+00       0.00000E+00       2.66603E+03       0.00000E+00       4.75897E-09
       4764   0.59550E+02       6.40533E+02       0.00000E+00       0.00000E+00       0.00000E+00      -7.03147E+02       0.00000E+00       6.40427E+02       0.00000E+00       7.04000E+02       0.00000E+00       0.00000E+00      -3.59954E+01       0.00000E+00       0.00000E+00       0.00000E+00       2.77845E+03       0.00000E+00       0.00000E+00       2.78528E+03       0.00000E+00       4.42501E-09
       4765   0.59562E+02       5.91250E+02       0.00000E+00       0.00000E+00       0.00000E+00      -6.69257E+02       0.00000E+00       5.90670E+02       0.00000E+00       6.56625E+02       0.00000E+00       0.00000E+00      -3.60273E+01       0.00000E+00       0.00000E+00       0.00000E+00       2.62447E+03       0.00000E+00       0.00000E+00       2.56480E+03       0.00000E+00       4.07463E-09
       4766   0.59575E+02       5.35040E+02       0.00000E+00       0.00000E+00       0.00000E+00      -5.97333E+02       0.00000E+00       5.35040E+02       0.00000E+00       5.95627E+02       0.00000E+00       0.00000E+00      -3.59958E+01       0.00000E+00       0.00000E+00       0.00000E+00       2.68971E+03       0.00000E+00       0.00000E+00       2.68971E+03       0.00000E+00       3.70748E-09
       4767   0.59588E+02       4.81192E+02       0.00000E+00       0.00000E+00       0.00000E+00      -5.57357E+02       0.00000E+00       4.80653E+02       0.00000E+00       5.44618E+02       0.00000E+00       0.00000E+00      -3.60272E+01       0.00000E+00       0.00000E+00       0.00000E+00       2.51151E+03       0.00000E+00       0.00000E+00       2.45195E+03       0.00000E+00       3.32670E-09
       4768   0.59600E+02       4.20800E+02       0.00000E+00       0.00000E+00       0.00000E+00      -4.79573E+02       0.00000E+00       4.20907E+02       0.00000E+00       4.78720E+02       0.00000E+00       0.00000E+00      -3.59958E+01       0.00000E+00       0.00000E+00       0.00000E+00       2.55317E+03       0.00000E+00       0.00000E+00       2.55317E+03       0.00000E+00       2.93207E-09
       4769   0.59613E+02       3.63547E+02       0.00000E+00       0.00000E+00       0.00000E+00      -4.37710E+02       0.00000E+00       3.63007E+02       0.00000E+00       4.24818E+02       0.00000E+00       0.00000E+00      -3.60273E+01       0.00000E+00       0.00000E+00       0.00000E+00       2.38601E+03       0.00000E+00       0.00000E+00       2.32629E+03       0.00000E+00       2.52686E-09
       4770   0.59625E+02       3.00053E+02       0.00000E+00       0.00000E+00       0.00000E+00      -3.56693E+02       0.00000E+00       3.00053E+02       0.00000E+00       3.54987E+02       0.00000E+00       0.00000E+00      -3.59967E+01       0.00000E+00       0.00000E+00       0.00000E+00       2.41664E+03       0.00000E+00       0.00000E+00       2.43029E+03       0.00000E+00       2.11092E-09
       4771   0.59638E+02       2.40099E+02       0.00000E+00       0.00000E+00       0.00000E+00      -3.11923E+02       0.00000E+00       2.39598E+02       0.00000E+00       2.98938E+02       0.00000E+00       0.00000E+00      -3.60273E+01       0.00000E+00       0.00000E+00       0.00000E+00       2.25071E+03       0.00000E+00       0.00000E+00       2.18907E+03       0.00000E+00       1.68759E-09
       4772   0.59650E+02       1.74507E+02       0.00000E+00       0.00000E+00       0.00000E+00      -2.27840E+02       0.00000E+00       1.74613E+02       0.00000E+00       2.26987E+02       0.00000E+00       0.00000E+00      -3.59967E+01       0.00000E+00       0.00000E+00       0.00000E+00       2.29376E+03       0.00000E+00       0.00000E+00       2.28693E+03       0.00000E+00       1.25681E-09
       4773   0.59663E+02       1.12795E+02       0.00000E+00       0.00000E+00       0.00000E+00      -1.82170E+02       0.00000E+00       1.12315E+02       0.00000E+00       1.69052E+02       0.00000E+00       0.00000E+00      -3.60274E+01       0.00000E+00       0.00000E+00       0.00000E+00       2.10969E+03       0.00000E+00       0.00000E+00       2.04864E+03       0.00000E+00       8.21998E-10
       4774   0.59675E+02       4.59733E+01       0.00000E+00       0.00000E+00       0.00000E+00      -9.89867E+01       0.00000E+00       4.58667E+01       0.00000E+00       9.89867E+01       0.00000E+00       0.00000E+00      -3.59963E+01       0.00000E+00       0.00000E+00       0.00000E+00       2.15040E+03       0.00000E+00       0.00000E+00       2.14357E+03       0.00000E+00       3.83097E-10
       4775   0.59688E+02      -1.63696E+01       0.00000E+00       0.00000E+00       0.00000E+00      -5.03432E+01       0.00000E+00      -1.68433E+01       0.00000E+00       3.71983E+01       0.00000E+00       0.00000E+00      -3.60275E+01       0.00000E+00       0.00000E+00       0.00000E+00       1.96377E+03       0.00000E+00       0.00000E+00       1.90560E+03       0.00000E+00      -5.64190E-11
       4776   0.59700E+02      -8.34133E+01       0.00000E+00       0.00000E+00       0.00000E+00       3.41333E+01       0.00000E+00      -8.34133E+01       0.00000E+00      -3.41333E+01       0.00000E+00       0.00000E+00      -3.59963E+01       0.00000E+00       0.00000E+00       0.00000E+00       2.00704E+03       0.00000E+00       0.00000E+00       2.00704E+03       0.00000E+00      -4.96584E-10
       4777   0.59713E+02      -1.45415E+02       0.00000E+00       0.00000E+00       0.00000E+00       8.11901E+01       0.00000E+00      -1.45870E+02       0.00000E+00      -9.43617E+01       0.00000E+00       0.00000E+00      -3.60276E+01       0.00000E+00       0.00000E+00       0.00000E+00       1.82031E+03       0.00000E+00       0.00000E+00       1.75877E+03       0.00000E+00      -9.33942E-10
       4778   0.59725E+02      -2.11627E+02       0.00000E+00       0.00000E+00       0.00000E+00       1.64693E+02       0.00000E+00      -2.11520E+02       0.00000E+00      -1.65547E+02       0.00000E+00       0.00000E+00      -3.59975E+01       0.00000E+00       0.00000E+00       0.00000E+00       1.86368E+03       0.00000E+00       0.00000E+00       1.85685E+03       0.00000E+00      -1.36853E-09
       4779   0.59738E+02      -2.72288E+02       0.00000E+00       0.00000E+00       0.00000E+00       2.10330E+02       0.00000E+00      -2.72735E+02       0.00000E+00      -2.23695E+02       0.00000E+00       0.00000E+00      -3.60278E+01       0.00000E+00       0.00000E+00       0.00000E+00       1.67593E+03       0.00000E+00       0.00000E+00       1.61467E+03       0.00000E+00      -1.79687E-09
       4780   0.59750E+02      -3.36640E+02       0.00000E+00       0.00000E+00       0.00000E+00       2.92693E+02       0.00000E+00      -3.36533E+02       0.00000E+00      -2.92693E+02       0.00000E+00       0.00000E+00      -3.59963E+01       0.00000E+00       0.00000E+00       0.00000E+00       1.71349E+03       0.00000E+00       0.00000E+00       1.72032E+03       0.00000E+00      -2.21908E-09
       4781   0.59763E+02      -3.95040E+02       0.00000E+00       0.00000E+00       0.00000E+00       3.35363E+02       0.00000E+00      -3.95460E+02       0.00000E+00      -3.48975E+02       0.00000E+00       0.00000E+00      -3.60279E+01       0.00000E+00       0.00000E+00       0.00000E+00       1.53599E+03       0.00000E+00       0.00000E+00       1.47296E+03       0.00000E+00      -2.63175E-09
       4782   0.59775E+02      -4.56640E+02       0.00000E+00       0.00000E+00       0.00000E+00       4.13013E+02       0.00000E+00      -4.56533E+02       0.00000E+00      -4.14720E+02       0.00000E+00       0.00000E+00      -3.59975E+01       0.00000E+00       0.00000E+00       0.00000E+00       1.57013E+03       0.00000E+00       0.00000E+00       1.58379E+03       0.00000E+00      -3.03502E-09
       4783   0.59788E+02      -5.11771E+02       0.00000E+00       0.00000E+00       0.00000E+00       4.54650E+02       0.00000E+00      -5.12148E+02       0.00000E+00      -4.68088E+02       0.00000E+00       0.00000E+00      -3.60280E+01       0.00000E+00       0.00000E+00       0.00000E+00       1.40161E+03       0.00000E+00       0.00000E+00       1.33739E+03       0.00000E+00      -3.42554E-09
       4784   0.59800E+02      -5.69600E+02       0.00000E+00       0.00000E+00       0.00000E+00       5.29067E+02       0.00000E+00      -5.69387E+02       0.00000E+00      -5.31627E+02       0.00000E+00       0.00000E+00      -3.59967E+01       0.00000E+00       0.00000E+00       0.00000E+00       1.45408E+03       0.00000E+00       0.00000E+00       1.45408E+03       0.00000E+00      -3.80358E-09
       4785   0.59812E+02      -6.20593E+02       0.00000E+00       0.00000E+00       0.00000E+00       5.65857E+02       0.00000E+00      -6.20963E+02       0.00000E+00      -5.79028E+02       0.00000E+00       0.00000E+00      -3.60280E+01       0.00000E+00       0.00000E+00       0.00000E+00       1.27441E+03       0.00000E+00       0.00000E+00       1.21147E+03       0.00000E+00      -4.16584E-09
       4786   0.59825E+02      -6.73813E+02       0.00000E+00       0.00000E+00       0.00000E+00       6.36587E+02       0.00000E+00      -6.73707E+02       0.00000E+00      -6.38293E+02       0.00000E+00       0.00000E+00      -3.59975E+01       0.00000E+00       0.00000E+00       0.00000E+00       1.32437E+03       0.00000E+00       0.00000E+00       1.31072E+03       0.00000E+00      -4.51274E-09
       4787   0.59838E+02      -7.19880E+02       0.00000E+00       0.00000E+00       0.00000E+00       6.67217E+02       0.00000E+00      -7.20235E+02       0.00000E+00      -6.80232E+02       0.00000E+00       0.00000E+00      -3.60281E+01       0.00000E+00       0.00000E+00       0.00000E+00       1.16116E+03       0.00000E+00       0.00000E+00       1.09640E+03       0.00000E+00      -4.84113E-09
       4788   0.59850E+02      -7.67680E+02       0.00000E+00       0.00000E+00       0.00000E+00       7.33013E+02       0.00000E+00      -7.67680E+02       0.00000E+00      -7.33867E+02       0.00000E+00       0.00000E+00      -3.59975E+01       0.00000E+00       0.00000E+00       0.00000E+00       1.20149E+03       0.00000E+00       0.00000E+00       1.20149E+03       0.00000E+00      -5.15148E-09
       4789   0.59863E+02      -8.08039E+02       0.00000E+00       0.00000E+00       0.00000E+00       7.57143E+02       0.00000E+00      -8.08390E+02       0.00000E+00      -7.70162E+02       0.00000E+00       0.00000E+00      -3.60282E+01       0.00000E+00       0.00000E+00       0.00000E+00       1.05732E+03       0.00000E+00       0.00000E+00       9.93493E+02       0.00000E+00      -5.44083E-09
       4790   0.59875E+02      -8.49707E+02       0.00000E+00       0.00000E+00       0.00000E+00       8.14933E+02       0.00000E+00      -8.49920E+02       0.00000E+00      -8.17493E+02       0.00000E+00       0.00000E+00      -3.59979E+01       0.00000E+00       0.00000E+00       0.00000E+00       1.11275E+03       0.00000E+00       0.00000E+00       1.11957E+03       0.00000E+00      -5.70978E-09
       4791   0.59888E+02      -8.83719E+02       0.00000E+00       0.00000E+00       0.00000E+00       8.34350E+02       0.00000E+00      -8.84066E+02       0.00000E+00      -8.47355E+02       0.00000E+00       0.00000E+00      -3.60282E+01       0.00000E+00       0.00000E+00       0.00000E+00       9.69401E+02       0.00000E+00       0.00000E+00       9.05413E+02       0.00000E+00      -5.95560E-09
       4792   0.59900E+02      -9.18720E+02       0.00000E+00       0.00000E+00       0.00000E+00       8.85760E+02       0.00000E+00      -9.18613E+02       0.00000E+00      -8.87467E+02       0.00000E+00       0.00000E+00      -3.59975E+01       0.00000E+00       0.00000E+00       0.00000E+00       1.03765E+03       0.00000E+00       0.00000E+00       1.04448E+03       0.00000E+00      -6.17899E-09
       4793   0.59913E+02      -9.45721E+02       0.00000E+00       0.00000E+00       0.00000E+00       8.97727E+02       0.00000E+00      -9.46063E+02       0.00000E+00      -9.10658E+02       0.00000E+00       0.00000E+00      -3.60283E+01       0.00000E+00       0.00000E+00       0.00000E+00       8.95228E+02       0.00000E+00       0.00000E+00       8.30986E+02       0.00000E+00      -6.37740E-09
       4794   0.59925E+02      -9.73653E+02       0.00000E+00       0.00000E+00       0.00000E+00       9.41227E+02       0.00000E+00      -9.73440E+02       0.00000E+00      -9.43787E+02       0.00000E+00       0.00000E+00      -3.59971E+01       0.00000E+00       0.00000E+00       0.00000E+00       9.76213E+02       0.00000E+00       0.00000E+00       9.69387E+02       0.00000E+00      -6.55176E-09
       4795   0.59938E+02      -9.93092E+02       0.00000E+00       0.00000E+00       0.00000E+00       9.46157E+02       0.00000E+00      -9.93436E+02       0.00000E+00      -9.59028E+02       0.00000E+00       0.00000E+00      -3.60284E+01       0.00000E+00       0.00000E+00       0.00000E+00       8.38427E+02       0.00000E+00       0.00000E+00       7.75613E+02       0.00000E+00      -6.69965E-09
       4796   0.59950E+02      -1.01355E+03       0.00000E+00       0.00000E+00       0.00000E+00       9.83040E+02       0.00000E+00      -1.01333E+03       0.00000E+00      -9.83893E+02       0.00000E+00       0.00000E+00      -3.59983E+01       0.00000E+00       0.00000E+00       0.00000E+00       9.28427E+02       0.00000E+00       0.00000E+00       9.28427E+02       0.00000E+00      -6.82223E-09
       4797   0.59963E+02      -1.02510E+03       0.00000E+00       0.00000E+00       0.00000E+00       9.78783E+02       0.00000E+00      -1.02544E+03       0.00000E+00      -9.91718E+02       0.00000E+00       0.00000E+00      -3.60284E+01       0.00000E+00       0.00000E+00       0.00000E+00       8.02081E+02       0.00000E+00       0.00000E+00       7.37573E+02       0.00000E+00      -6.91732E-09
       4798   0.59975E+02      -1.03755E+03       0.00000E+00       0.00000E+00       0.00000E+00       1.00608E+03       0.00000E+00      -1.03733E+03       0.00000E+00      -1.00864E+03       0.00000E+00       0.00000E+00      -3.59979E+01       0.00000E+00       0.00000E+00       0.00000E+00       8.94293E+02       0.00000E+00       0.00000E+00       8.94293E+02       0.00000E+00      -6.98623E-09
       4799   0.59988E+02      -1.04122E+03       0.00000E+00       0.00000E+00       0.00000E+00       9.95156E+02       0.00000E+00      -1.04157E+03       0.00000E+00      -1.00818E+03       0.00000E+00       0.00000E+00      -3.60285E+01       0.00000E+00       0.00000E+00       0.00000E+00       7.83984E+02       0.00000E+00       0.00000E+00       7.19783E+02       0.00000E+00      -7.02701E-09
       4800   0.60000E+02      -1.04555E+03       0.00000E+00       0.00000E+00       0.00000E+00       1.01547E+03       0.00000E+00      -1.04533E+03       0.00000E+00      -1.01547E+03       0.00000E+00       0.00000E+00      -3.59975E+01       0.00000E+00       0.00000E+00       0.00000E+00       8.87467E+02       0.00000E+00       0.00000E+00       8.87467E+02       0.00000E+00      -7.04121E-09

This summary file was closed on 11-Nov-2020 at 18:56:31.

