
**************************************************************************************************
OpenFAST

Copyright (C) 2020 National Renewable Energy Laboratory
Copyright (C) 2020 Envision Energy USA LTD

This program is licensed under Apache License Version 2.0 and comes with ABSOLUTELY NO WARRANTY.
See the "LICENSE" file distributed with this software for details.
**************************************************************************************************

OpenFAST--128-NOTFOUND
Compile Info:
 - Compiler: Intel(R) Visual Fortran Intel(R) 64 Compiler for applications running on Intel(R)
 64, Version 19.0.5.281 Build 20190815
 - Architecture: 64 bit
 - Precision: double
 - Date: Nov 06 2020
 - Time: 13:50:38
Execution Info:
 - Date: 11/06/2020
 - Time: 16:22:00-0600

OpenFAST input file heading:
    FAST Certification Test #02: AWT-27CR2 with many DOFs with startup and shutdown and steady
    wind

Running ElastoDyn.
Nodal outputs section of ElastoDyn input file not found or improperly formatted.
Running AeroDyn.
Nodal output section of AeroDyn input file not found or improperly formatted.
Running InflowWind.
Running ServoDyn.
 Time: 0 of 20 seconds.
The BEM solution is being turned off due to low TSR.  (TSR = 0). This warning will not be
repeated though the condition may persist. (See GeomPhi output channel.)                                                                                                   Time: 2 of 20 seconds.  Estimated final completion at 16:22:20.                                                                                                   Time: 4 of 20 seconds.  Estimated final completion at 16:22:20.                                                                                                   Time: 6 of 20 seconds.  Estimated final completion at 16:22:20.                                                                                                   Time: 8 of 20 seconds.  Estimated final completion at 16:22:20.                                                                                                   Time: 10 of 20 seconds.  Estimated final completion at 16:22:20.                                                                                                   Time: 12 of 20 seconds.  Estimated final completion at 16:22:19.                                                                                                   Time: 14 of 20 seconds.  Estimated final completion at 16:22:19.                                                                                                   Time: 16 of 20 seconds.  Estimated final completion at 16:22:19.                                                                                                   Time: 18 of 20 seconds.  Estimated final completion at 16:22:19.                                                                                                   Time: 20 of 20 seconds.  Estimated final completion at 16:22:19.                                                                                                  

 Total Real Time:       18.611 seconds
 Total CPU Time:        17.797 seconds
 Simulation CPU Time:   17.672 seconds
 Simulated Time:        20 seconds
 Time Ratio (Sim/CPU):  1.1317

 OpenFAST terminated normally.

