
**************************************************************************************************
OpenFAST

Copyright (C) 2020 National Renewable Energy Laboratory
Copyright (C) 2020 Envision Energy USA LTD

This program is licensed under Apache License Version 2.0 and comes with ABSOLUTELY NO WARRANTY.
See the "LICENSE" file distributed with this software for details.
**************************************************************************************************

OpenFAST--128-NOTFOUND
Compile Info:
 - Compiler: Intel(R) Visual Fortran Intel(R) 64 Compiler for applications running on Intel(R)
 64, Version 19.0.5.281 Build 20190815
 - Architecture: 64 bit
 - Precision: double
 - Date: Nov 06 2020
 - Time: 13:50:38
Execution Info:
 - Date: 11/06/2020
 - Time: 16:24:07-0600

OpenFAST input file heading:
    FAST Certification Test #24: NREL 5.0 MW Baseline Wind Turbine with OC3 Hywind Configuration,
    for use in offshore analysis

Running ElastoDyn.
Nodal outputs section of ElastoDyn input file not found or improperly formatted.
Running AeroDyn.
Nodal output section of AeroDyn input file not found or improperly formatted.
Warning: Turning off Unsteady Aerodynamics because C_nalpha is 0. (node 1, blade 1)
Warning: Turning off Unsteady Aerodynamics because C_nalpha is 0. (node 2, blade 1)
Warning: Turning off Unsteady Aerodynamics because C_nalpha is 0. (node 3, blade 1)
Warning: Turning off Unsteady Aerodynamics because C_nalpha is 0. (node 4, blade 1)
Warning: Turning off Unsteady Aerodynamics because C_nalpha is 0. (node 1, blade 2)
Warning: Turning off Unsteady Aerodynamics because C_nalpha is 0. (node 2, blade 2)
Warning: Turning off Unsteady Aerodynamics because C_nalpha is 0. (node 3, blade 2)
Warning: Turning off Unsteady Aerodynamics because C_nalpha is 0. (node 4, blade 2)
Warning: Turning off Unsteady Aerodynamics because C_nalpha is 0. (node 1, blade 3)
Warning: Turning off Unsteady Aerodynamics because C_nalpha is 0. (node 2, blade 3)
Warning: Turning off Unsteady Aerodynamics because C_nalpha is 0. (node 3, blade 3)
Warning: Turning off Unsteady Aerodynamics because C_nalpha is 0. (node 4, blade 3)
Running InflowWind.

   Reading a 31x31 grid (145 m wide, 17.5 m to 162.5 m above ground) with a characteristic wind
   speed of 12 m/s. This full-field file was generated by TurbSim (v1.06.00, 21-Sep-2012) on
   07-Jan-2014 at 12:50:45.

   Processed 1442 time steps of 20-Hz full-field data (72.05 seconds).
Running ServoDyn.
Running ServoDyn Interface for Bladed Controllers (using Intel Visual Fortran for Windows, ).
Using legacy Bladed DLL interface.
Running HydroDyn.
 Generating incident wave kinematics and current time history.
 Reading in WAMIT output with root name
 "C:\Users\rmudafor\Desktop\openfast\build\reg_tests\glue-codes\openfast\5MW_OC3Spar_DLL_WTurb_Wav
 esIrr\../5MW_Baseline/HydroData/Spar".
 Computing radiation impulse response functions and wave diffraction forces.


 Time: 0 of 60 seconds.

FAST_Solution0:CalcOutputs_And_SolveForInputs:SolveOption2:SrvD_CalcOutput:DLL_controller_call:Run
ning with torque and pitch control of the NREL offshore 5MW baseline wind turbine from DISCON.dll
as written by J. Jonkman of NREL/NWTC for use in the IEA Annex XXIII OC3 studies.  Includes
modifications for the Hywind spar.
                                                                                                   Time: 1 of 60 seconds.  Estimated final completion at 16:25:28.                                                                                                   Time: 2 of 60 seconds.  Estimated final completion at 16:25:25.                                                                                                   Time: 3 of 60 seconds.  Estimated final completion at 16:25:26.                                                                                                   Time: 4 of 60 seconds.  Estimated final completion at 16:25:23.                                                                                                   Time: 5 of 60 seconds.  Estimated final completion at 16:25:23.                                                                                                   Time: 6 of 60 seconds.  Estimated final completion at 16:25:25.                                                                                                   Time: 7 of 60 seconds.  Estimated final completion at 16:25:24.                                                                                                   Time: 8 of 60 seconds.  Estimated final completion at 16:25:25.                                                                                                   Time: 9 of 60 seconds.  Estimated final completion at 16:25:33.                                                                                                   Time: 10 of 60 seconds.  Estimated final completion at 16:25:30.                                                                                                   Time: 11 of 60 seconds.  Estimated final completion at 16:25:27.                                                                                                   Time: 12 of 60 seconds.  Estimated final completion at 16:25:28.                                                                                                   Time: 13 of 60 seconds.  Estimated final completion at 16:25:23.                                                                                                   Time: 14 of 60 seconds.  Estimated final completion at 16:25:26.                                                                                                   Time: 15 of 60 seconds.  Estimated final completion at 16:25:25.                                                                                                   Time: 16 of 60 seconds.  Estimated final completion at 16:25:34.                                                                                                   Time: 17 of 60 seconds.  Estimated final completion at 16:25:30.                                                                                                   Time: 18 of 60 seconds.  Estimated final completion at 16:25:28.                                                                                                   Time: 19 of 60 seconds.  Estimated final completion at 16:25:28.                                                                                                   Time: 20 of 60 seconds.  Estimated final completion at 16:25:26.                                                                                                   Time: 21 of 60 seconds.  Estimated final completion at 16:25:27.                                                                                                   Time: 22 of 60 seconds.  Estimated final completion at 16:25:27.                                                                                                   Time: 23 of 60 seconds.  Estimated final completion at 16:25:26.                                                                                                   Time: 24 of 60 seconds.  Estimated final completion at 16:25:24.                                                                                                   Time: 25 of 60 seconds.  Estimated final completion at 16:25:31.                                                                                                   Time: 26 of 60 seconds.  Estimated final completion at 16:25:26.                                                                                                   Time: 27 of 60 seconds.  Estimated final completion at 16:25:25.                                                                                                   Time: 28 of 60 seconds.  Estimated final completion at 16:25:23.                                                                                                   Time: 29 of 60 seconds.  Estimated final completion at 16:25:22.                                                                                                   Time: 30 of 60 seconds.  Estimated final completion at 16:25:20.                                                                                                   Time: 31 of 60 seconds.  Estimated final completion at 16:25:22.                                                                                                   Time: 32 of 60 seconds.  Estimated final completion at 16:25:23.                                                                                                   Time: 33 of 60 seconds.  Estimated final completion at 16:25:24.                                                                                                   Time: 34 of 60 seconds.  Estimated final completion at 16:25:22.                                                                                                   Time: 35 of 60 seconds.  Estimated final completion at 16:25:23.                                                                                                   Time: 36 of 60 seconds.  Estimated final completion at 16:25:24.                                                                                                   Time: 37 of 60 seconds.  Estimated final completion at 16:25:25.                                                                                                   Time: 38 of 60 seconds.  Estimated final completion at 16:25:28.                                                                                                   Time: 39 of 60 seconds.  Estimated final completion at 16:25:26.                                                                                                   Time: 40 of 60 seconds.  Estimated final completion at 16:25:27.                                                                                                   Time: 41 of 60 seconds.  Estimated final completion at 16:25:26.                                                                                                   Time: 42 of 60 seconds.  Estimated final completion at 16:25:26.                                                                                                   Time: 43 of 60 seconds.  Estimated final completion at 16:25:25.                                                                                                   Time: 44 of 60 seconds.  Estimated final completion at 16:25:24.                                                                                                   Time: 45 of 60 seconds.  Estimated final completion at 16:25:26.                                                                                                   Time: 46 of 60 seconds.  Estimated final completion at 16:25:26.                                                                                                   Time: 47 of 60 seconds.  Estimated final completion at 16:25:25.                                                                                                   Time: 48 of 60 seconds.  Estimated final completion at 16:25:25.                                                                                                   Time: 49 of 60 seconds.  Estimated final completion at 16:25:25.                                                                                                   Time: 50 of 60 seconds.  Estimated final completion at 16:25:24.                                                                                                   Time: 51 of 60 seconds.  Estimated final completion at 16:25:24.                                                                                                   Time: 52 of 60 seconds.  Estimated final completion at 16:25:24.                                                                                                   Time: 53 of 60 seconds.  Estimated final completion at 16:25:25.                                                                                                   Time: 54 of 60 seconds.  Estimated final completion at 16:25:25.                                                                                                   Time: 55 of 60 seconds.  Estimated final completion at 16:25:25.                                                                                                   Time: 56 of 60 seconds.  Estimated final completion at 16:25:25.                                                                                                   Time: 57 of 60 seconds.  Estimated final completion at 16:25:25.                                                                                                   Time: 58 of 60 seconds.  Estimated final completion at 16:25:25.                                                                                                   Time: 59 of 60 seconds.  Estimated final completion at 16:25:25.                                                                                                   Time: 60 of 60 seconds.  Estimated final completion at 16:25:25.                                                                                                  

 Total Real Time:       1.2821 minutes
 Total CPU Time:        1.2677 minutes
 Simulation CPU Time:   1.1784 minutes
 Simulated Time:        1 minutes
 Time Ratio (Sim/CPU):  0.84862

 OpenFAST terminated normally.

MAP++ environment properties (set externally)...
    Gravity constant          [m/s^2]  : 9.81
    Sea density               [kg/m^3] : 1025.00
    Water depth               [m]      : 320.00
    Vessel reference position [m]      : 0.00 , 0.00 , 0.00
