
**************************************************************************************************
OpenFAST

Copyright (C) 2021 National Renewable Energy Laboratory
Copyright (C) 2021 Envision Energy USA LTD

This program is licensed under Apache License Version 2.0 and comes with ABSOLUTELY NO WARRANTY.
See the "LICENSE" file distributed with this software for details.
**************************************************************************************************

OpenFAST-v2.4.0-137-gb5d9a13c
Compile Info:
 - Compiler: Intel(R) Fortran Intel(R) 64 Compiler Classic for applications running on Intel(R)
 64, Version 2021.1 Build 20201112_000000
 - Architecture: 64 bit
 - Precision: double
 - Date: Jan 11 2021
 - Time: 20:21:29
Execution Info:
 - Date: 01/11/2021
 - Time: 20:48:56-0600

OpenFAST input file heading:
    FAST Certification Test #04: AWT-27CR2 with many DOFs with free yaw and FF turbulence.

Running ElastoDyn.
Nodal outputs section of ElastoDyn input file not found or improperly formatted.
Running AeroDyn14.
Running InflowWind.

   Reading a 6x6 grid (33 m wide, 26.172 m to 59.172 m above ground) with a characteristic wind
   speed of 12 m/s.

   Processed 1455 time steps of 20-Hz full-field data (72.7 seconds).
Running ServoDyn.
 Time: 0 of 70 seconds.                                                                                                   Time: 1 of 70 seconds.  Estimated final completion at 20:49:53.                                                                                                   Time: 2 of 70 seconds.  Estimated final completion at 20:49:50.                                                                                                   Time: 3 of 70 seconds.  Estimated final completion at 20:49:43.                                                                                                   Time: 4 of 70 seconds.  Estimated final completion at 20:49:45.                                                                                                   Time: 5 of 70 seconds.  Estimated final completion at 20:49:50.                                                                                                   Time: 6 of 70 seconds.  Estimated final completion at 20:49:47.                                                                                                   Time: 7 of 70 seconds.  Estimated final completion at 20:49:50.                                                                                                   Time: 8 of 70 seconds.  Estimated final completion at 20:49:43.                                                                                                   Time: 9 of 70 seconds.  Estimated final completion at 20:49:46.                                                                                                   Time: 10 of 70 seconds.  Estimated final completion at 20:49:53.                                                                                                   Time: 11 of 70 seconds.  Estimated final completion at 20:49:53.                                                                                                   Time: 12 of 70 seconds.  Estimated final completion at 20:49:47.                                                                                                   Time: 13 of 70 seconds.  Estimated final completion at 20:49:50.                                                                                                   Time: 14 of 70 seconds.  Estimated final completion at 20:49:50.                                                                                                   Time: 15 of 70 seconds.  Estimated final completion at 20:49:51.                                                                                                   Time: 16 of 70 seconds.  Estimated final completion at 20:49:49.                                                                                                   Time: 17 of 70 seconds.  Estimated final completion at 20:49:50.                                                                                                   Time: 18 of 70 seconds.  Estimated final completion at 20:49:50.                                                                                                   Time: 19 of 70 seconds.  Estimated final completion at 20:49:46.                                                                                                   Time: 20 of 70 seconds.  Estimated final completion at 20:49:49.                                                                                                   Time: 21 of 70 seconds.  Estimated final completion at 20:49:53.                                                                                                   Time: 22 of 70 seconds.  Estimated final completion at 20:49:51.                                                                                                   Time: 23 of 70 seconds.  Estimated final completion at 20:49:49.                                                                                                   Time: 24 of 70 seconds.  Estimated final completion at 20:49:49.                                                                                                   Time: 25 of 70 seconds.  Estimated final completion at 20:49:45.                                                                                                   Time: 26 of 70 seconds.  Estimated final completion at 20:49:49.                                                                                                   Time: 27 of 70 seconds.  Estimated final completion at 20:49:50.                                                                                                   Time: 28 of 70 seconds.  Estimated final completion at 20:49:48.                                                                                                   Time: 29 of 70 seconds.  Estimated final completion at 20:49:48.                                                                                                   Time: 30 of 70 seconds.  Estimated final completion at 20:49:50.                                                                                                   Time: 31 of 70 seconds.  Estimated final completion at 20:49:49.                                                                                                   Time: 32 of 70 seconds.  Estimated final completion at 20:49:52.                                                                                                   Time: 33 of 70 seconds.  Estimated final completion at 20:49:51.                                                                                                   Time: 34 of 70 seconds.  Estimated final completion at 20:49:49.                                                                                                   Time: 35 of 70 seconds.  Estimated final completion at 20:49:49.                                                                                                   Time: 36 of 70 seconds.  Estimated final completion at 20:49:48.                                                                                                   Time: 37 of 70 seconds.  Estimated final completion at 20:49:48.                                                                                                   Time: 38 of 70 seconds.  Estimated final completion at 20:49:50.                                                                                                   Time: 39 of 70 seconds.  Estimated final completion at 20:49:50.                                                                                                   Time: 40 of 70 seconds.  Estimated final completion at 20:49:49.                                                                                                   Time: 41 of 70 seconds.  Estimated final completion at 20:49:49.                                                                                                   Time: 42 of 70 seconds.  Estimated final completion at 20:49:49.                                                                                                   Time: 43 of 70 seconds.  Estimated final completion at 20:49:48.                                                                                                   Time: 44 of 70 seconds.  Estimated final completion at 20:49:46.                                                                                                   Time: 45 of 70 seconds.  Estimated final completion at 20:49:46.                                                                                                   Time: 46 of 70 seconds.  Estimated final completion at 20:49:47.                                                                                                   Time: 47 of 70 seconds.  Estimated final completion at 20:49:50.                                                                                                   Time: 48 of 70 seconds.  Estimated final completion at 20:49:49.                                                                                                   Time: 49 of 70 seconds.  Estimated final completion at 20:49:48.                                                                                                   Time: 50 of 70 seconds.  Estimated final completion at 20:49:47.                                                                                                   Time: 51 of 70 seconds.  Estimated final completion at 20:49:48.                                                                                                   Time: 52 of 70 seconds.  Estimated final completion at 20:49:49.                                                                                                   Time: 53 of 70 seconds.  Estimated final completion at 20:49:49.                                                                                                   Time: 54 of 70 seconds.  Estimated final completion at 20:49:49.                                                                                                   Time: 55 of 70 seconds.  Estimated final completion at 20:49:49.                                                                                                   Time: 56 of 70 seconds.  Estimated final completion at 20:49:50.                                                                                                   Time: 57 of 70 seconds.  Estimated final completion at 20:49:48.                                                                                                   Time: 58 of 70 seconds.  Estimated final completion at 20:49:48.                                                                                                   Time: 59 of 70 seconds.  Estimated final completion at 20:49:48.                                                                                                   Time: 60 of 70 seconds.  Estimated final completion at 20:49:47.                                                                                                   Time: 61 of 70 seconds.  Estimated final completion at 20:49:48.                                                                                                   Time: 62 of 70 seconds.  Estimated final completion at 20:49:48.                                                                                                   Time: 63 of 70 seconds.  Estimated final completion at 20:49:48.                                                                                                   Time: 64 of 70 seconds.  Estimated final completion at 20:49:47.                                                                                                   Time: 65 of 70 seconds.  Estimated final completion at 20:49:47.                                                                                                   Time: 66 of 70 seconds.  Estimated final completion at 20:49:48.                                                                                                   Time: 67 of 70 seconds.  Estimated final completion at 20:49:48.                                                                                                   Time: 68 of 70 seconds.  Estimated final completion at 20:49:47.                                                                                                   Time: 69 of 70 seconds.  Estimated final completion at 20:49:47.                                                                                                   Time: 70 of 70 seconds.  Estimated final completion at 20:49:47.                                                                                                  

 Total Real Time:       50.799 seconds
 Total CPU Time:        50.375 seconds
 Simulation CPU Time:   50.234 seconds
 Simulated Time:        70.002 seconds
 Time Ratio (Sim/CPU):  1.3935

 OpenFAST terminated normally.

