
**************************************************************************************************
OpenFAST

Copyright (C) 2022 National Renewable Energy Laboratory
Copyright (C) 2022 Envision Energy USA LTD

This program is licensed under Apache License Version 2.0 and comes with ABSOLUTELY NO WARRANTY.
See the "LICENSE" file distributed with this software for details.
**************************************************************************************************

OpenFAST-v3.1.0-243-ge6028eae
Compile Info:
 - Compiler: Intel(R) Fortran Intel(R) 64 Compiler Classic for applications running on Intel(R)
 64, Version 2021.1 Build 20201112_000000
 - Architecture: 64 bit
 - Precision: double
 - OpenMP: No
 - Date: Jul 06 2022
 - Time: 19:36:47
Execution Info:
 - Date: 07/06/2022
 - Time: 20:07:38-0500

OpenFAST input file heading:
    FAST Certification Test #04: AWT-27CR2 with many DOFs with free yaw and FF turbulence.

Running ElastoDyn.
Nodal outputs section of ElastoDyn input file not found or improperly formatted.
Running AeroDyn14.
  WARNING:   AeroDyn 14 is deprecated and will be removed in a future release.
Running InflowWind.

   Reading a 6x6 grid (33 m wide, 26.172 m to 59.172 m above ground) with a characteristic wind
   speed of 12 m/s.

   Processed 1455 time steps of 20-Hz full-field data (72.7 seconds).
Running ServoDyn.
 Time: 0 of 70 seconds.                                                                                                   Time: 1 of 70 seconds.  Estimated final completion at 20:08:29.                                                                                                   Time: 2 of 70 seconds.  Estimated final completion at 20:08:22.                                                                                                   Time: 3 of 70 seconds.  Estimated final completion at 20:08:20.                                                                                                   Time: 4 of 70 seconds.  Estimated final completion at 20:08:18.                                                                                                   Time: 5 of 70 seconds.  Estimated final completion at 20:08:20.                                                                                                   Time: 6 of 70 seconds.  Estimated final completion at 20:08:20.                                                                                                   Time: 7 of 70 seconds.  Estimated final completion at 20:08:18.                                                                                                   Time: 8 of 70 seconds.  Estimated final completion at 20:08:20.                                                                                                   Time: 9 of 70 seconds.  Estimated final completion at 20:08:16.                                                                                                   Time: 10 of 70 seconds.  Estimated final completion at 20:08:27.                                                                                                   Time: 11 of 70 seconds.  Estimated final completion at 20:08:22.                                                                                                   Time: 12 of 70 seconds.  Estimated final completion at 20:08:21.                                                                                                   Time: 13 of 70 seconds.  Estimated final completion at 20:08:27.                                                                                                   Time: 14 of 70 seconds.  Estimated final completion at 20:08:17.                                                                                                   Time: 15 of 70 seconds.  Estimated final completion at 20:08:20.                                                                                                   Time: 16 of 70 seconds.  Estimated final completion at 20:08:20.                                                                                                   Time: 17 of 70 seconds.  Estimated final completion at 20:08:18.                                                                                                   Time: 18 of 70 seconds.  Estimated final completion at 20:08:17.                                                                                                   Time: 19 of 70 seconds.  Estimated final completion at 20:08:19.                                                                                                   Time: 20 of 70 seconds.  Estimated final completion at 20:08:23.                                                                                                   Time: 21 of 70 seconds.  Estimated final completion at 20:08:19.                                                                                                   Time: 22 of 70 seconds.  Estimated final completion at 20:08:24.                                                                                                   Time: 23 of 70 seconds.  Estimated final completion at 20:08:19.                                                                                                   Time: 24 of 70 seconds.  Estimated final completion at 20:08:18.                                                                                                   Time: 25 of 70 seconds.  Estimated final completion at 20:08:19.                                                                                                   Time: 26 of 70 seconds.  Estimated final completion at 20:08:17.                                                                                                   Time: 27 of 70 seconds.  Estimated final completion at 20:08:18.                                                                                                   Time: 28 of 70 seconds.  Estimated final completion at 20:08:21.                                                                                                   Time: 29 of 70 seconds.  Estimated final completion at 20:08:20.                                                                                                   Time: 30 of 70 seconds.  Estimated final completion at 20:08:19.                                                                                                   Time: 31 of 70 seconds.  Estimated final completion at 20:08:19.                                                                                                   Time: 32 of 70 seconds.  Estimated final completion at 20:08:18.                                                                                                   Time: 33 of 70 seconds.  Estimated final completion at 20:08:18.                                                                                                   Time: 34 of 70 seconds.  Estimated final completion at 20:08:20.                                                                                                   Time: 35 of 70 seconds.  Estimated final completion at 20:08:21.                                                                                                   Time: 36 of 70 seconds.  Estimated final completion at 20:08:20.                                                                                                   Time: 37 of 70 seconds.  Estimated final completion at 20:08:27.                                                                                                   Time: 38 of 70 seconds.  Estimated final completion at 20:08:23.                                                                                                   Time: 39 of 70 seconds.  Estimated final completion at 20:08:21.                                                                                                   Time: 40 of 70 seconds.  Estimated final completion at 20:08:23.                                                                                                   Time: 41 of 70 seconds.  Estimated final completion at 20:08:25.                                                                                                   Time: 42 of 70 seconds.  Estimated final completion at 20:08:24.                                                                                                   Time: 43 of 70 seconds.  Estimated final completion at 20:08:23.                                                                                                   Time: 44 of 70 seconds.  Estimated final completion at 20:08:22.                                                                                                   Time: 45 of 70 seconds.  Estimated final completion at 20:08:22.                                                                                                   Time: 46 of 70 seconds.  Estimated final completion at 20:08:21.                                                                                                   Time: 47 of 70 seconds.  Estimated final completion at 20:08:22.                                                                                                   Time: 48 of 70 seconds.  Estimated final completion at 20:08:21.                                                                                                   Time: 49 of 70 seconds.  Estimated final completion at 20:08:21.                                                                                                   Time: 50 of 70 seconds.  Estimated final completion at 20:08:20.                                                                                                   Time: 51 of 70 seconds.  Estimated final completion at 20:08:21.                                                                                                   Time: 52 of 70 seconds.  Estimated final completion at 20:08:21.                                                                                                   Time: 53 of 70 seconds.  Estimated final completion at 20:08:20.                                                                                                   Time: 54 of 70 seconds.  Estimated final completion at 20:08:20.                                                                                                   Time: 55 of 70 seconds.  Estimated final completion at 20:08:21.                                                                                                   Time: 56 of 70 seconds.  Estimated final completion at 20:08:21.                                                                                                   Time: 57 of 70 seconds.  Estimated final completion at 20:08:21.                                                                                                   Time: 58 of 70 seconds.  Estimated final completion at 20:08:20.                                                                                                   Time: 59 of 70 seconds.  Estimated final completion at 20:08:22.                                                                                                   Time: 60 of 70 seconds.  Estimated final completion at 20:08:20.                                                                                                   Time: 61 of 70 seconds.  Estimated final completion at 20:08:21.                                                                                                   Time: 62 of 70 seconds.  Estimated final completion at 20:08:20.                                                                                                   Time: 63 of 70 seconds.  Estimated final completion at 20:08:20.                                                                                                   Time: 64 of 70 seconds.  Estimated final completion at 20:08:20.                                                                                                   Time: 65 of 70 seconds.  Estimated final completion at 20:08:21.                                                                                                   Time: 66 of 70 seconds.  Estimated final completion at 20:08:21.                                                                                                   Time: 67 of 70 seconds.  Estimated final completion at 20:08:21.                                                                                                   Time: 68 of 70 seconds.  Estimated final completion at 20:08:21.                                                                                                   Time: 69 of 70 seconds.  Estimated final completion at 20:08:21.                                                                                                   Time: 70 of 70 seconds.  Estimated final completion at 20:08:21.                                                                                                  

 Total Real Time:       42.437 seconds
 Total CPU Time:        42.266 seconds
 Simulation CPU Time:   42.094 seconds
 Simulated Time:        70.002 seconds
 Time Ratio (Sim/CPU):  1.663

 OpenFAST terminated normally.

