
 **************************************************************************************************
 OpenFAST

 Copyright (C) 2021 National Renewable Energy Laboratory
 Copyright (C) 2021 Envision Energy USA LTD

 This program is licensed under Apache License Version 2.0 and comes with ABSOLUTELY NO WARRANTY.
 See the "LICENSE" file distributed with this software for details.
 **************************************************************************************************

 OpenFAST-v2.4.0-138-g9a6c1967
 Compile Info:
  - Compiler: Intel(R) Fortran Intel(R) 64 Compiler Classic for applications running on Intel(R)
  64, Version 2021.1.2 Build 20201208_000000
  - Architecture: 64 bit
  - Precision: double
  - Date: Jan 12 2021
  - Time: 13:31:16
 Execution Info:
  - Date: 01/12/2021
  - Time: 14:14:35-0600

 OpenFAST input file heading:
     FAST Certification Test #25: NREL 5.0 MW Baseline Wind Turbine with OC4-DeepCwind semi
     configuration, for use in offshore analysis

 Running ElastoDyn.
 Nodal outputs section of ElastoDyn input file not found or improperly formatted.
 Running ServoDyn.
 Running HydroDyn.
   Setting WaveTMax to 0.0 since WaveMod = 0
  Reading in WAMIT output with root name
  "../build/reg_tests/glue-codes/openfast/5MW_OC4Semi_Linear/../5MW_Baseline/HydroData/marin_semi".
  Computing radiation impulse response functions and wave diffraction forces.

 Using SS_Excitation Module, with 36 excitation states

 Using SS_Radiation Module, with 58 of 58 radiation states


  Time: 0 of 5 seconds.
+                                                                                                  
+ Performing linearization 1 at simulation time 0 s. (RotSpeed=12 rpm, BldPitch1=3.09 deg)

+                                                                                                  
+ Time: 1 of 5 seconds.  Estimated final completion at 14:39:40.
+                                                                                                  
+ Time: 2 of 5 seconds.  Estimated final completion at 14:19:41.
+                                                                                                  
+ Time: 3 of 5 seconds.  Estimated final completion at 14:19:41.
+                                                                                                  
+ Time: 4 of 5 seconds.  Estimated final completion at 14:19:41.
+                                                                                                  
+ Time: 5 of 5 seconds.  Estimated final completion at 14:19:41.
+                                                                                                  

  Total Real Time:       5.0918 minutes
  Total CPU Time:        5.087 minutes
  Simulation CPU Time:   5.0812 minutes
  Simulated Time:        8.33333E-02 minutes
  Time Ratio (Sim/CPU):  1.64002E-02

  OpenFAST terminated normally.

MAP++ environment properties (set externally)...
    Gravity constant          [m/s^2]  : 9.81
    Sea density               [kg/m^3] : 1025.00
    Water depth               [m]      : 200.00
    Vessel reference position [m]      : 0.00 , 0.00 , 0.00
