
This summary information was generated by AeroDyn on 16-Jul-2020 at 13:43:08.

======  General Options  ============================================================================
            3  WakeMod        - Type of wake/induction model: Free Vortex Wake Theory
            1  AFAeroMod      - Type of blade airfoil aerodynamics model: steady
            0  TwrPotent      - Type tower influence on wind based on potential flow around the tower: none
            F  TwrShadow      - Calculate tower influence on wind based on downstream tower shadow? No
            F  TwrAero        - Calculate tower aerodynamic loads? No
======  Outputs  ====================================================================================
            9  NBlOuts        - Number of blade nodes selected for output
           51  NumBlNds       - Number of blade nodes in the analysis
               Blade nodes selected for output:  Output node  Analysis node
                                                 -----------  -------------
                                                           1              1
                                                           2              7
                                                           3             11
                                                           4             20
                                                           5             29
                                                           6             36
                                                           7             41
                                                           8             45
                                                           9             50
            0  NTwOuts        - Number of tower nodes selected for output
               Requested Output Channels:
               Col   Parameter  Units
               ----  ---------  -----
                  0  Time                 (s)                 
                  1  RtTSR                (-)                 
                  2  RtVAvgxh             (m/s)               
                  3  RtVAvgyh             (m/s)               
                  4  RtVAvgzh             (m/s)               
                  5  RtSkew               (deg)               
                  6  RtAeroFxh            (N)                 
                  7  RtAeroFyh            (N)                 
                  8  RtAeroFzh            (N)                 
                  9  RtAeroMxh            (N-m)               
                 10  RtAeroMyh            (N-m)               
                 11  RtAeroMzh            (N-m)               
                 12  RtAeroPwr            (W)                 
                 13  RtAeroCp             (-)                 
                 14  RtAeroCq             (-)                 
                 15  RtAeroCt             (-)                 
                 16  B1N9Clrnc            INVALID             
                 17  B1N1Alpha            (deg)               
                 18  B1N1Cl               (-)                 
                 19  B1N1Cd               (-)                 
                 20  B1N1Cm               (-)                 
                 21  B1N1Fl               (N/m)               
                 22  B1N1Fd               (N/m)               
                 23  B1N1Fn               (N/m)               
                 24  B1N1Ft               (N/m)               
                 25  B1N1Vrel             (m/s)               
                 26  B1N1AxInd            (-)                 
                 27  B1N1TnInd            (-)                 
                 28  B1N1Fx               (N/m)               
                 29  B1N1Fy               (N/m)               
                 30  B1N1Mm               (N-m/m)             
                 31  B1N2Alpha            (deg)               
                 32  B1N2Cl               (-)                 
                 33  B1N2Cd               (-)                 
                 34  B1N2Cm               (-)                 
                 35  B1N2Fl               (N/m)               
                 36  B1N2Fd               (N/m)               
                 37  B1N2Fn               (N/m)               
                 38  B1N2Ft               (N/m)               
                 39  B1N2Vrel             (m/s)               
                 40  B1N2AxInd            (-)                 
                 41  B1N2TnInd            (-)                 
                 42  B1N2Fx               (N/m)               
                 43  B1N2Fy               (N/m)               
                 44  B1N2Mm               (N-m/m)             
                 45  B1N3Alpha            (deg)               
                 46  B1N3Cl               (-)                 
                 47  B1N3Cd               (-)                 
                 48  B1N3Cm               (-)                 
                 49  B1N3Fl               (N/m)               
                 50  B1N3Fd               (N/m)               
                 51  B1N3Fn               (N/m)               
                 52  B1N3Ft               (N/m)               
                 53  B1N3Vrel             (m/s)               
                 54  B1N3AxInd            (-)                 
                 55  B1N3TnInd            (-)                 
                 56  B1N3Fx               (N/m)               
                 57  B1N3Fy               (N/m)               
                 58  B1N3Mm               (N-m/m)             
                 59  B1N4Alpha            (deg)               
                 60  B1N4Cl               (-)                 
                 61  B1N4Cd               (-)                 
                 62  B1N4Cm               (-)                 
                 63  B1N4Fl               (N/m)               
                 64  B1N4Fd               (N/m)               
                 65  B1N4Fn               (N/m)               
                 66  B1N4Ft               (N/m)               
                 67  B1N4Vrel             (m/s)               
                 68  B1N4AxInd            (-)                 
                 69  B1N4TnInd            (-)                 
                 70  B1N4Fx               (N/m)               
                 71  B1N4Fy               (N/m)               
                 72  B1N4Mm               (N-m/m)             
                 73  B1N5Alpha            (deg)               
                 74  B1N5Cl               (-)                 
                 75  B1N5Cd               (-)                 
                 76  B1N5Cm               (-)                 
                 77  B1N5Fl               (N/m)               
                 78  B1N5Fd               (N/m)               
                 79  B1N5Fn               (N/m)               
                 80  B1N5Ft               (N/m)               
                 81  B1N5Vrel             (m/s)               
                 82  B1N5AxInd            (-)                 
                 83  B1N5TnInd            (-)                 
                 84  B1N5Fx               (N/m)               
                 85  B1N5Fy               (N/m)               
                 86  B1N5Mm               (N-m/m)             
                 87  B1N6Alpha            (deg)               
                 88  B1N6Cl               (-)                 
                 89  B1N6Cd               (-)                 
                 90  B1N6Cm               (-)                 
                 91  B1N6Fl               (N/m)               
                 92  B1N6Fd               (N/m)               
                 93  B1N6Fn               (N/m)               
                 94  B1N6Ft               (N/m)               
                 95  B1N6Vrel             (m/s)               
                 96  B1N6AxInd            (-)                 
                 97  B1N6TnInd            (-)                 
                 98  B1N6Fx               (N/m)               
                 99  B1N6Fy               (N/m)               
                100  B1N6Mm               (N-m/m)             
                101  B1N7Alpha            (deg)               
                102  B1N7Cl               (-)                 
                103  B1N7Cd               (-)                 
                104  B1N7Cm               (-)                 
                105  B1N7Fl               (N/m)               
                106  B1N7Fd               (N/m)               
                107  B1N7Fn               (N/m)               
                108  B1N7Ft               (N/m)               
                109  B1N7Vrel             (m/s)               
                110  B1N7AxInd            (-)                 
                111  B1N7TnInd            (-)                 
                112  B1N7Fx               (N/m)               
                113  B1N7Fy               (N/m)               
                114  B1N7Mm               (N-m/m)             
                115  B1N8Alpha            (deg)               
                116  B1N8Cl               (-)                 
                117  B1N8Cd               (-)                 
                118  B1N8Cm               (-)                 
                119  B1N8Fl               (N/m)               
                120  B1N8Fd               (N/m)               
                121  B1N8Fn               (N/m)               
                122  B1N8Ft               (N/m)               
                123  B1N8Vrel             (m/s)               
                124  B1N8AxInd            (-)                 
                125  B1N8TnInd            (-)                 
                126  B1N8Fx               (N/m)               
                127  B1N8Fy               (N/m)               
                128  B1N8Mm               (N-m/m)             
                129  B1N9Alpha            (deg)               
                130  B1N9Cl               (-)                 
                131  B1N9Cd               (-)                 
                132  B1N9Cm               (-)                 
                133  B1N9Fl               (N/m)               
                134  B1N9Fd               (N/m)               
                135  B1N9Fn               (N/m)               
                136  B1N9Ft               (N/m)               
                137  B1N9Vrel             (m/s)               
                138  B1N9AxInd            (-)                 
                139  B1N9TnInd            (-)                 
                140  B1N9Fx               (N/m)               
                141  B1N9Fy               (N/m)               
                142  B1N9Mm               (N-m/m)             
                143  B1N1Gam              (m^2/s)             
                144  B1N2Gam              (m^2/s)             
                145  B1N3Gam              (m^2/s)             
                146  B1N4Gam              (m^2/s)             
                147  B1N5Gam              (m^2/s)             
                148  B1N6Gam              (m^2/s)             
                149  B1N7Gam              (m^2/s)             
                150  B1N8Gam              (m^2/s)             
                151  B1N9Gam              (m^2/s)             
                152  B2N1Gam              (m^2/s)             
                153  B2N2Gam              (m^2/s)             
                154  B2N3Gam              (m^2/s)             
                155  B2N4Gam              (m^2/s)             
                156  B2N5Gam              (m^2/s)             
                157  B2N6Gam              (m^2/s)             
                158  B2N7Gam              (m^2/s)             
                159  B2N8Gam              (m^2/s)             
                160  B2N9Gam              (m^2/s)             
                161  B3N1Gam              (m^2/s)             
                162  B3N2Gam              (m^2/s)             
                163  B3N3Gam              (m^2/s)             
                164  B3N4Gam              (m^2/s)             
                165  B3N5Gam              (m^2/s)             
                166  B3N6Gam              (m^2/s)             
                167  B3N7Gam              (m^2/s)             
                168  B3N8Gam              (m^2/s)             
                169  B3N9Gam              (m^2/s)             


               Requested Output Channels at each blade station:
               Col   Parameter       Units
               ----  --------------  -----
