
**************************************************************************************************
OpenFAST

Copyright (C) 2020 National Renewable Energy Laboratory
Copyright (C) 2020 Envision Energy USA LTD

This program is licensed under Apache License Version 2.0 and comes with ABSOLUTELY NO WARRANTY.
See the "LICENSE" file distributed with this software for details.
**************************************************************************************************

OpenFAST--128-NOTFOUND
Compile Info:
 - Compiler: Intel(R) Visual Fortran Intel(R) 64 Compiler for applications running on Intel(R)
 64, Version 19.0.5.281 Build 20190815
 - Architecture: 64 bit
 - Precision: double
 - Date: Nov 06 2020
 - Time: 13:50:38
Execution Info:
 - Date: 11/06/2020
 - Time: 16:25:25-0600

OpenFAST input file heading:
    Helical wake test case for OLAF free wake vortex in AD15

Running ElastoDyn.
Nodal outputs section of ElastoDyn input file not found or improperly formatted.
Running AeroDyn.
Nodal output section of AeroDyn input file not found or improperly formatted.
Running FVW.
 - Directory:         C:\Users\rmudafor\Desktop\openfast\build\reg_tests
 - RootName:
 C:\Users\rmudafor\Desktop\openfast\build\reg_tests\glue-codes\openfast\HelicalWake_OLAF\HelicalWa
 ke_OLAF.
 - No OpenMP support
Running InflowWind.

FAST_InitializeAll:InitModuleMappings:ED_2_AD_BladeMotion(1):MeshMapCreate:CreateMotionMap_L2_to_L
2:CreateMapping_ProjectToLine2:Found close value for node 51. (9.99253E-05 m)
InitModuleMappings:ED_2_AD_BladeMotion(2):MeshMapCreate:CreateMotionMap_L2_to_L2:CreateMapping_Pro
jectToLine2:Found close value for node 51. (9.99253E-05 m)
InitModuleMappings:ED_2_AD_BladeMotion(3):MeshMapCreate:CreateMotionMap_L2_to_L2:CreateMapping_Pro
jectToLine2:Found close value for node 51. (9.99253E-05 m)

 Time: 0 of 70 seconds.                                                                                                   Time: 2 of 70 seconds.  Estimated final completion at 16:26:06.                                                                                                   Time: 4 of 70 seconds.  Estimated final completion at 16:26:28.                                                                                                   Time: 6 of 70 seconds.  Estimated final completion at 16:26:52.                                                                                                   Time: 8 of 70 seconds.  Estimated final completion at 16:26:50.                                                                                                   Time: 10 of 70 seconds.  Estimated final completion at 16:26:48.                                                                                                   Time: 12 of 70 seconds.  Estimated final completion at 16:26:54.                                                                                                   Time: 14 of 70 seconds.  Estimated final completion at 16:26:50.                                                                                                   Time: 16 of 70 seconds.  Estimated final completion at 16:26:47.                                                                                                   Time: 18 of 70 seconds.  Estimated final completion at 16:26:50.                                                                                                   Time: 20 of 70 seconds.  Estimated final completion at 16:26:48.                                                                                                   Time: 22 of 70 seconds.  Estimated final completion at 16:26:53.                                                                                                   Time: 24 of 70 seconds.  Estimated final completion at 16:26:47.                                                                                                   Time: 26 of 70 seconds.  Estimated final completion at 16:26:46.                                                                                                   Time: 28 of 70 seconds.  Estimated final completion at 16:26:49.                                                                                                   Time: 30 of 70 seconds.  Estimated final completion at 16:26:49.                                                                                                   Time: 32 of 70 seconds.  Estimated final completion at 16:26:50.                                                                                                   Time: 34 of 70 seconds.  Estimated final completion at 16:26:51.                                                                                                   Time: 36 of 70 seconds.  Estimated final completion at 16:26:47.                                                                                                   Time: 38 of 70 seconds.  Estimated final completion at 16:26:49.                                                                                                   Time: 40 of 70 seconds.  Estimated final completion at 16:26:52.                                                                                                   Time: 42 of 70 seconds.  Estimated final completion at 16:26:51.                                                                                                   Time: 44 of 70 seconds.  Estimated final completion at 16:26:52.                                                                                                   Time: 46 of 70 seconds.  Estimated final completion at 16:26:51.                                                                                                   Time: 48 of 70 seconds.  Estimated final completion at 16:26:52.                                                                                                   Time: 50 of 70 seconds.  Estimated final completion at 16:26:52.                                                                                                   Time: 52 of 70 seconds.  Estimated final completion at 16:26:53.                                                                                                   Time: 54 of 70 seconds.  Estimated final completion at 16:26:52.                                                                                                   Time: 56 of 70 seconds.  Estimated final completion at 16:26:53.                                                                                                   Time: 58 of 70 seconds.  Estimated final completion at 16:26:52.                                                                                                   Time: 60 of 70 seconds.  Estimated final completion at 16:26:52.                                                                                                   Time: 62 of 70 seconds.  Estimated final completion at 16:26:52.                                                                                                   Time: 64 of 70 seconds.  Estimated final completion at 16:26:52.                                                                                                   Time: 66 of 70 seconds.  Estimated final completion at 16:26:53.                                                                                                   Time: 68 of 70 seconds.  Estimated final completion at 16:26:53.                                                                                                   Time: 70 of 70 seconds.  Estimated final completion at 16:26:53.                                                                                                  

 Total Real Time:       1.4528 minutes
 Total CPU Time:        1.4424 minutes
 Simulation CPU Time:   1.4414 minutes
 Simulated Time:        1.1667 minutes
 Time Ratio (Sim/CPU):  0.80939

 OpenFAST terminated normally.

