
**************************************************************************************************
OpenFAST

Copyright (C) 2021 National Renewable Energy Laboratory
Copyright (C) 2021 Envision Energy USA LTD

This program is licensed under Apache License Version 2.0 and comes with ABSOLUTELY NO WARRANTY.
See the "LICENSE" file distributed with this software for details.
**************************************************************************************************

OpenFAST-v2.4.0-137-gb5d9a13c
Compile Info:
 - Compiler: Intel(R) Fortran Intel(R) 64 Compiler Classic for applications running on Intel(R)
 64, Version 2021.1 Build 20201112_000000
 - Architecture: 64 bit
 - Precision: double
 - Date: Jan 11 2021
 - Time: 20:21:29
Execution Info:
 - Date: 01/11/2021
 - Time: 21:07:04-0600

OpenFAST input file heading:
    Helical wake test case for OLAF free wake vortex in AD15

Running ElastoDyn.
Nodal outputs section of ElastoDyn input file not found or improperly formatted.
Running AeroDyn.
Nodal output section of AeroDyn input file not found or improperly formatted.
Running FVW.
 - Directory:         C:\Users\rmudafor\Desktop\openfast\build\reg_tests
 - RootName:
 C:\Users\rmudafor\Desktop\openfast\build\reg_tests\glue-codes\openfast\HelicalWake_OLAF\HelicalWa
 ke_OLAF.
 - No OpenMP support
Running InflowWind.

FAST_InitializeAll:InitModuleMappings:ED_2_AD_BladeMotion(1):MeshMapCreate:CreateMotionMap_L2_to_L
2:CreateMapping_ProjectToLine2:Found close value for node 51. (9.99253E-05 m)
InitModuleMappings:ED_2_AD_BladeMotion(2):MeshMapCreate:CreateMotionMap_L2_to_L2:CreateMapping_Pro
jectToLine2:Found close value for node 51. (9.99253E-05 m)
InitModuleMappings:ED_2_AD_BladeMotion(3):MeshMapCreate:CreateMotionMap_L2_to_L2:CreateMapping_Pro
jectToLine2:Found close value for node 51. (9.99253E-05 m)

 Time: 0 of 70 seconds.                                                                                                   Time: 2 of 70 seconds.  Estimated final completion at 21:07:32.                                                                                                   Time: 4 of 70 seconds.  Estimated final completion at 21:07:47.                                                                                                   Time: 6 of 70 seconds.  Estimated final completion at 21:07:56.                                                                                                   Time: 8 of 70 seconds.  Estimated final completion at 21:08:07.                                                                                                   Time: 10 of 70 seconds.  Estimated final completion at 21:08:03.                                                                                                   Time: 12 of 70 seconds.  Estimated final completion at 21:08:04.                                                                                                   Time: 14 of 70 seconds.  Estimated final completion at 21:08:07.                                                                                                   Time: 16 of 70 seconds.  Estimated final completion at 21:07:56.                                                                                                   Time: 18 of 70 seconds.  Estimated final completion at 21:08:07.                                                                                                   Time: 20 of 70 seconds.  Estimated final completion at 21:08:01.                                                                                                   Time: 22 of 70 seconds.  Estimated final completion at 21:08:06.                                                                                                   Time: 24 of 70 seconds.  Estimated final completion at 21:08:09.                                                                                                   Time: 26 of 70 seconds.  Estimated final completion at 21:08:09.                                                                                                   Time: 28 of 70 seconds.  Estimated final completion at 21:08:07.                                                                                                   Time: 30 of 70 seconds.  Estimated final completion at 21:08:07.                                                                                                   Time: 32 of 70 seconds.  Estimated final completion at 21:08:05.                                                                                                   Time: 34 of 70 seconds.  Estimated final completion at 21:08:03.                                                                                                   Time: 36 of 70 seconds.  Estimated final completion at 21:08:06.                                                                                                   Time: 38 of 70 seconds.  Estimated final completion at 21:08:08.                                                                                                   Time: 40 of 70 seconds.  Estimated final completion at 21:08:08.                                                                                                   Time: 42 of 70 seconds.  Estimated final completion at 21:08:08.                                                                                                   Time: 44 of 70 seconds.  Estimated final completion at 21:08:09.                                                                                                   Time: 46 of 70 seconds.  Estimated final completion at 21:08:09.                                                                                                   Time: 48 of 70 seconds.  Estimated final completion at 21:08:11.                                                                                                   Time: 50 of 70 seconds.  Estimated final completion at 21:08:11.                                                                                                   Time: 52 of 70 seconds.  Estimated final completion at 21:08:12.                                                                                                   Time: 54 of 70 seconds.  Estimated final completion at 21:08:12.                                                                                                   Time: 56 of 70 seconds.  Estimated final completion at 21:08:12.                                                                                                   Time: 58 of 70 seconds.  Estimated final completion at 21:08:13.                                                                                                   Time: 60 of 70 seconds.  Estimated final completion at 21:08:14.                                                                                                   Time: 62 of 70 seconds.  Estimated final completion at 21:08:13.                                                                                                   Time: 64 of 70 seconds.  Estimated final completion at 21:08:13.                                                                                                   Time: 66 of 70 seconds.  Estimated final completion at 21:08:13.                                                                                                   Time: 68 of 70 seconds.  Estimated final completion at 21:08:14.                                                                                                   Time: 70 of 70 seconds.  Estimated final completion at 21:08:13.                                                                                                  

 Total Real Time:       1.15 minutes
 Total CPU Time:        1.1479 minutes
 Simulation CPU Time:   1.1466 minutes
 Simulated Time:        1.1667 minutes
 Time Ratio (Sim/CPU):  1.0175

 OpenFAST terminated normally.

