
This summary file was generated by HydroDyn  on 23-Dec-2021 at 16:15:52.

WAMIT Model - Body    1
------------------
  Displaced volume (m^3)                 :     1.391700E+04
  X-offset of the center of buoyancy (m) :     0.000000E+00
  Y-offset of the center of buoyancy (m) :     0.000000E+00


  Buoyancy loads from members modelled with WAMIT, summed about ( 0.0, 0.0, 0.0 )
                                BuoyFxi               BuoyFyi               BuoyFzi               BuoyMxi               BuoyMyi               BuoyMzi 
                                  (N)                   (N)                   (N)                  (N-m)                 (N-m)                 (N-m)  
  External:                 0.000000E+00          0.000000E+00          1.398911E+08          0.000000E+00          0.000000E+00          0.000000E+00



Strip-Theory Volume Calculations(m^3)
-------------------------------------
  Structure Volume     :    0.00000E+00
  Submerged Volume     :    0.00000E+00
  Marine Growth Volume :    0.00000E+00
  Ballasted Volume     :    9.38912E+03
              NOTE: Structure, Submerged and Marine Growth volumes are based on members not modelled with WAMIT
                      Ballasted volume is computed from all members which are marked as filled in the HydroDyn input file, regardless of PropPot flag



Total Buoyancy loads summed about ( 0.0, 0.0, 0.0 )
---------------------------------------------------
                                BuoyFxi               BuoyFyi               BuoyFzi               BuoyMxi               BuoyMyi               BuoyMzi 
                                  (N)                   (N)                   (N)                  (N-m)                 (N-m)                 (N-m)  
 External:                  0.000000E+00          0.000000E+00          0.000000E+00          0.000000E+00          0.000000E+00          0.000000E+00
 Internal:                  1.095575E-07          0.000000E+00         -9.437773E+07          0.000000E+00          3.145924E+02         -6.310887E-23
 Total   :                  1.095575E-07          0.000000E+00         -9.437773E+07          0.000000E+00          3.145924E+02         -6.310887E-23
              NOTE: External buoyancy is based on members not modelled with WAMIT
                      Internal buoyancy is computed from all members which are marked as filled in the HydroDyn input file, regardless of PropPot flag
                    Total buoyancy does not include WAMIT-modelled buoyancy contribution



Weight loads about ( 0.0, 0.0, 0.0 )
------------------------------------
                                 MGFxi                 MGFyi                 MGFzi                 MGMxi                 MGMyi                 MGMzi  
                                  (N)                   (N)                   (N)                  (N-m)                 (N-m)                 (N-m)  
 Marine Growth:             0.000000E+00          0.000000E+00          0.000000E+00          0.000000E+00          0.000000E+00          0.000000E+00



Nodes (first [  44 ] are joints, remainder are internal nodes)


   i      MbrIndx      Nxi         Nyi         Nzi           R          t          tMG        MGDens     PropPot    FilledFlag  FilledMass      Cd          Ca          Cp         AxCd        AxCa        AxCp        JAxCd       JAxCa       JAxCp  
  (-)       (-)        (m)         (m)         (m)          (m)        (m)         (m)       (kg/m^3)      (-)         (-)        (kg)          (-)         (-)         (-)         (-)         (-)         (-)         (-)         (-)         (-)   
     1      -           0.0000      0.0000    -20.0000      -           -        0.000E+00   0.000E+00      -           -           -           -           -           -           -           -           -        0.000E+00   0.000E+00   1.000E+00
     2      -           0.0000      0.0000     10.0000      -           -        0.000E+00   0.000E+00      -           -           -           -           -           -           -           -           -        0.000E+00   0.000E+00   1.000E+00
     3      -          14.4338     25.0000    -14.0000      -           -        0.000E+00   0.000E+00      -           -           -           -           -           -           -           -           -        0.000E+00   0.000E+00   1.000E+00
     4      -          14.4338     25.0000     12.0000      -           -        0.000E+00   0.000E+00      -           -           -           -           -           -           -           -           -        0.000E+00   0.000E+00   1.000E+00
     5      -         -28.8675      0.0000    -14.0000      -           -        0.000E+00   0.000E+00      -           -           -           -           -           -           -           -           -        0.000E+00   0.000E+00   1.000E+00
     6      -         -28.8675      0.0000     12.0000      -           -        0.000E+00   0.000E+00      -           -           -           -           -           -           -           -           -        0.000E+00   0.000E+00   1.000E+00
     7      -          14.4338    -25.0000    -14.0000      -           -        0.000E+00   0.000E+00      -           -           -           -           -           -           -           -           -        0.000E+00   0.000E+00   1.000E+00
     8      -          14.4338    -25.0000     12.0000      -           -        0.000E+00   0.000E+00      -           -           -           -           -           -           -           -           -        0.000E+00   0.000E+00   1.000E+00
     9      -          14.4337     25.0000    -20.0000      -           -        0.000E+00   0.000E+00      -           -           -           -           -           -           -           -           -        9.600E+00   0.000E+00   1.000E+00
    10      -         -28.8675      0.0000    -20.0000      -           -        0.000E+00   0.000E+00      -           -           -           -           -           -           -           -           -        9.600E+00   0.000E+00   1.000E+00
    11      -          14.4337    -25.0000    -20.0000      -           -        0.000E+00   0.000E+00      -           -           -           -           -           -           -           -           -        9.600E+00   0.000E+00   1.000E+00
    12      -           9.2376     22.0000     10.0000      -           -        0.000E+00   0.000E+00      -           -           -           -           -           -           -           -           -        0.000E+00   0.000E+00   1.000E+00
    13      -         -23.6713      3.0000     10.0000      -           -        0.000E+00   0.000E+00      -           -           -           -           -           -           -           -           -        0.000E+00   0.000E+00   1.000E+00
    14      -         -23.6713     -3.0000     10.0000      -           -        0.000E+00   0.000E+00      -           -           -           -           -           -           -           -           -        0.000E+00   0.000E+00   1.000E+00
    15      -           9.2376    -22.0000     10.0000      -           -        0.000E+00   0.000E+00      -           -           -           -           -           -           -           -           -        0.000E+00   0.000E+00   1.000E+00
    16      -          14.4337    -19.0000     10.0000      -           -        0.000E+00   0.000E+00      -           -           -           -           -           -           -           -           -        0.000E+00   0.000E+00   1.000E+00
    17      -          14.4337     19.0000     10.0000      -           -        0.000E+00   0.000E+00      -           -           -           -           -           -           -           -           -        0.000E+00   0.000E+00   1.000E+00
    18      -           4.0415     19.0000    -17.0000      -           -        0.000E+00   0.000E+00      -           -           -           -           -           -           -           -           -        0.000E+00   0.000E+00   1.000E+00
    19      -         -18.4752      6.0000    -17.0000      -           -        0.000E+00   0.000E+00      -           -           -           -           -           -           -           -           -        0.000E+00   0.000E+00   1.000E+00
    20      -         -18.4752     -6.0000    -17.0000      -           -        0.000E+00   0.000E+00      -           -           -           -           -           -           -           -           -        0.000E+00   0.000E+00   1.000E+00
    21      -           4.0415    -19.0000    -17.0000      -           -        0.000E+00   0.000E+00      -           -           -           -           -           -           -           -           -        0.000E+00   0.000E+00   1.000E+00
    22      -          14.4337    -13.0000    -17.0000      -           -        0.000E+00   0.000E+00      -           -           -           -           -           -           -           -           -        0.000E+00   0.000E+00   1.000E+00
    23      -          14.4337     13.0000    -17.0000      -           -        0.000E+00   0.000E+00      -           -           -           -           -           -           -           -           -        0.000E+00   0.000E+00   1.000E+00
    24      -           1.6250      2.8150     10.0000      -           -        0.000E+00   0.000E+00      -           -           -           -           -           -           -           -           -        0.000E+00   0.000E+00   1.000E+00
    25      -          11.4338     19.8039     10.0000      -           -        0.000E+00   0.000E+00      -           -           -           -           -           -           -           -           -        0.000E+00   0.000E+00   1.000E+00
    26      -          -3.2500      0.0000     10.0000      -           -        0.000E+00   0.000E+00      -           -           -           -           -           -           -           -           -        0.000E+00   0.000E+00   1.000E+00
    27      -         -22.8700      0.0000     10.0000      -           -        0.000E+00   0.000E+00      -           -           -           -           -           -           -           -           -        0.000E+00   0.000E+00   1.000E+00
    28      -           1.6250     -2.8150     10.0000      -           -        0.000E+00   0.000E+00      -           -           -           -           -           -           -           -           -        0.000E+00   0.000E+00   1.000E+00
    29      -          11.4338    -19.8039     10.0000      -           -        0.000E+00   0.000E+00      -           -           -           -           -           -           -           -           -        0.000E+00   0.000E+00   1.000E+00
    30      -           1.6250      2.8150    -17.0000      -           -        0.000E+00   0.000E+00      -           -           -           -           -           -           -           -           -        0.000E+00   0.000E+00   1.000E+00
    31      -           8.4338     14.6077    -17.0000      -           -        0.000E+00   0.000E+00      -           -           -           -           -           -           -           -           -        0.000E+00   0.000E+00   1.000E+00
    32      -          -3.2500      0.0000    -17.0000      -           -        0.000E+00   0.000E+00      -           -           -           -           -           -           -           -           -        0.000E+00   0.000E+00   1.000E+00
    33      -         -16.8700      0.0000    -17.0000      -           -        0.000E+00   0.000E+00      -           -           -           -           -           -           -           -           -        0.000E+00   0.000E+00   1.000E+00
    34      -           1.6250     -2.8150    -17.0000      -           -        0.000E+00   0.000E+00      -           -           -           -           -           -           -           -           -        0.000E+00   0.000E+00   1.000E+00
    35      -           8.4338    -14.6077    -17.0000      -           -        0.000E+00   0.000E+00      -           -           -           -           -           -           -           -           -        0.000E+00   0.000E+00   1.000E+00
    36      -           1.6250      2.8150    -16.2000      -           -        0.000E+00   0.000E+00      -           -           -           -           -           -           -           -           -        0.000E+00   0.000E+00   1.000E+00
    37      -          11.4338     19.8039      9.1300      -           -        0.000E+00   0.000E+00      -           -           -           -           -           -           -           -           -        0.000E+00   0.000E+00   1.000E+00
    38      -          -3.2500      0.0000    -16.2000      -           -        0.000E+00   0.000E+00      -           -           -           -           -           -           -           -           -        0.000E+00   0.000E+00   1.000E+00
    39      -         -22.8700      0.0000      9.1300      -           -        0.000E+00   0.000E+00      -           -           -           -           -           -           -           -           -        0.000E+00   0.000E+00   1.000E+00
    40      -           1.6250     -2.8150    -16.2000      -           -        0.000E+00   0.000E+00      -           -           -           -           -           -           -           -           -        0.000E+00   0.000E+00   1.000E+00
    41      -          11.4338    -19.8039      9.1300      -           -        0.000E+00   0.000E+00      -           -           -           -           -           -           -           -           -        0.000E+00   0.000E+00   1.000E+00
    42      -          14.4338     25.0000    -19.9400      -           -        0.000E+00   0.000E+00      -           -           -           -           -           -           -           -           -        0.000E+00   0.000E+00   1.000E+00
    43      -         -28.8675      0.0000    -19.9400      -           -        0.000E+00   0.000E+00      -           -           -           -           -           -           -           -           -        0.000E+00   0.000E+00   1.000E+00
    44      -          14.4338    -25.0000    -19.9400      -           -        0.000E+00   0.000E+00      -           -           -           -           -           -           -           -           -        0.000E+00   0.000E+00   1.000E+00
    45           1      0.0000      0.0000    -19.0000   3.250E+00   3.000E-02   0.000E+00   0.000E+00           T           F   0.000E+00   5.600E-01   0.000E+00   0.000E+00   0.000E+00   0.000E+00   0.000E+00         -           -           -  
    46           1      0.0000      0.0000    -18.0000   3.250E+00   3.000E-02   0.000E+00   0.000E+00           T           F   0.000E+00   5.600E-01   0.000E+00   0.000E+00   0.000E+00   0.000E+00   0.000E+00         -           -           -  
    47           1      0.0000      0.0000    -17.0000   3.250E+00   3.000E-02   0.000E+00   0.000E+00           T           F   0.000E+00   5.600E-01   0.000E+00   0.000E+00   0.000E+00   0.000E+00   0.000E+00         -           -           -  
    48           1      0.0000      0.0000    -16.0000   3.250E+00   3.000E-02   0.000E+00   0.000E+00           T           F   0.000E+00   5.600E-01   0.000E+00   0.000E+00   0.000E+00   0.000E+00   0.000E+00         -           -           -  
    49           1      0.0000      0.0000    -15.0000   3.250E+00   3.000E-02   0.000E+00   0.000E+00           T           F   0.000E+00   5.600E-01   0.000E+00   0.000E+00   0.000E+00   0.000E+00   0.000E+00         -           -           -  
    50           1      0.0000      0.0000    -14.0000   3.250E+00   3.000E-02   0.000E+00   0.000E+00           T           F   0.000E+00   5.600E-01   0.000E+00   0.000E+00   0.000E+00   0.000E+00   0.000E+00         -           -           -  
    51           1      0.0000      0.0000    -13.0000   3.250E+00   3.000E-02   0.000E+00   0.000E+00           T           F   0.000E+00   5.600E-01   0.000E+00   0.000E+00   0.000E+00   0.000E+00   0.000E+00         -           -           -  
    52           1      0.0000      0.0000    -12.0000   3.250E+00   3.000E-02   0.000E+00   0.000E+00           T           F   0.000E+00   5.600E-01   0.000E+00   0.000E+00   0.000E+00   0.000E+00   0.000E+00         -           -           -  
    53           1      0.0000      0.0000    -11.0000   3.250E+00   3.000E-02   0.000E+00   0.000E+00           T           F   0.000E+00   5.600E-01   0.000E+00   0.000E+00   0.000E+00   0.000E+00   0.000E+00         -           -           -  
    54           1      0.0000      0.0000    -10.0000   3.250E+00   3.000E-02   0.000E+00   0.000E+00           T           F   0.000E+00   5.600E-01   0.000E+00   0.000E+00   0.000E+00   0.000E+00   0.000E+00         -           -           -  
    55           1      0.0000      0.0000     -9.0000   3.250E+00   3.000E-02   0.000E+00   0.000E+00           T           F   0.000E+00   5.600E-01   0.000E+00   0.000E+00   0.000E+00   0.000E+00   0.000E+00         -           -           -  
    56           1      0.0000      0.0000     -8.0000   3.250E+00   3.000E-02   0.000E+00   0.000E+00           T           F   0.000E+00   5.600E-01   0.000E+00   0.000E+00   0.000E+00   0.000E+00   0.000E+00         -           -           -  
    57           1      0.0000      0.0000     -7.0000   3.250E+00   3.000E-02   0.000E+00   0.000E+00           T           F   0.000E+00   5.600E-01   0.000E+00   0.000E+00   0.000E+00   0.000E+00   0.000E+00         -           -           -  
    58           1      0.0000      0.0000     -6.0000   3.250E+00   3.000E-02   0.000E+00   0.000E+00           T           F   0.000E+00   5.600E-01   0.000E+00   0.000E+00   0.000E+00   0.000E+00   0.000E+00         -           -           -  
    59           1      0.0000      0.0000     -5.0000   3.250E+00   3.000E-02   0.000E+00   0.000E+00           T           F   0.000E+00   5.600E-01   0.000E+00   0.000E+00   0.000E+00   0.000E+00   0.000E+00         -           -           -  
    60           1      0.0000      0.0000     -4.0000   3.250E+00   3.000E-02   0.000E+00   0.000E+00           T           F   0.000E+00   5.600E-01   0.000E+00   0.000E+00   0.000E+00   0.000E+00   0.000E+00         -           -           -  
    61           1      0.0000      0.0000     -3.0000   3.250E+00   3.000E-02   0.000E+00   0.000E+00           T           F   0.000E+00   5.600E-01   0.000E+00   0.000E+00   0.000E+00   0.000E+00   0.000E+00         -           -           -  
    62           1      0.0000      0.0000     -2.0000   3.250E+00   3.000E-02   0.000E+00   0.000E+00           T           F   0.000E+00   5.600E-01   0.000E+00   0.000E+00   0.000E+00   0.000E+00   0.000E+00         -           -           -  
    63           1      0.0000      0.0000     -1.0000   3.250E+00   3.000E-02   0.000E+00   0.000E+00           T           F   0.000E+00   5.600E-01   0.000E+00   0.000E+00   0.000E+00   0.000E+00   0.000E+00         -           -           -  
    64           1      0.0000      0.0000     -0.0000   3.250E+00   3.000E-02   0.000E+00   0.000E+00           T           F   0.000E+00   5.600E-01   0.000E+00   0.000E+00   0.000E+00   0.000E+00   0.000E+00         -           -           -  
    65           1      0.0000      0.0000      1.0000   3.250E+00   3.000E-02   0.000E+00   0.000E+00           T           F   0.000E+00   5.600E-01   0.000E+00   0.000E+00   0.000E+00   0.000E+00   0.000E+00         -           -           -  
    66           1      0.0000      0.0000      2.0000   3.250E+00   3.000E-02   0.000E+00   0.000E+00           T           F   0.000E+00   5.600E-01   0.000E+00   0.000E+00   0.000E+00   0.000E+00   0.000E+00         -           -           -  
    67           1      0.0000      0.0000      3.0000   3.250E+00   3.000E-02   0.000E+00   0.000E+00           T           F   0.000E+00   5.600E-01   0.000E+00   0.000E+00   0.000E+00   0.000E+00   0.000E+00         -           -           -  
    68           1      0.0000      0.0000      4.0000   3.250E+00   3.000E-02   0.000E+00   0.000E+00           T           F   0.000E+00   5.600E-01   0.000E+00   0.000E+00   0.000E+00   0.000E+00   0.000E+00         -           -           -  
    69           1      0.0000      0.0000      5.0000   3.250E+00   3.000E-02   0.000E+00   0.000E+00           T           F   0.000E+00   5.600E-01   0.000E+00   0.000E+00   0.000E+00   0.000E+00   0.000E+00         -           -           -  
    70           1      0.0000      0.0000      6.0000   3.250E+00   3.000E-02   0.000E+00   0.000E+00           T           F   0.000E+00   5.600E-01   0.000E+00   0.000E+00   0.000E+00   0.000E+00   0.000E+00         -           -           -  
    71           1      0.0000      0.0000      7.0000   3.250E+00   3.000E-02   0.000E+00   0.000E+00           T           F   0.000E+00   5.600E-01   0.000E+00   0.000E+00   0.000E+00   0.000E+00   0.000E+00         -           -           -  
    72           1      0.0000      0.0000      8.0000   3.250E+00   3.000E-02   0.000E+00   0.000E+00           T           F   0.000E+00   5.600E-01   0.000E+00   0.000E+00   0.000E+00   0.000E+00   0.000E+00         -           -           -  
    73           1      0.0000      0.0000      9.0000   3.250E+00   3.000E-02   0.000E+00   0.000E+00           T           F   0.000E+00   5.600E-01   0.000E+00   0.000E+00   0.000E+00   0.000E+00   0.000E+00         -           -           -  
    74           2     14.4338     25.0000    -13.0000   6.000E+00   6.000E-02   0.000E+00   0.000E+00           T           T   1.136E+05   6.100E-01   0.000E+00   0.000E+00   0.000E+00   0.000E+00   0.000E+00         -           -           -  
    75           2     14.4338     25.0000    -12.0000   6.000E+00   6.000E-02   0.000E+00   0.000E+00           T           T   1.136E+05   6.100E-01   0.000E+00   0.000E+00   0.000E+00   0.000E+00   0.000E+00         -           -           -  
    76           2     14.4338     25.0000    -11.0000   6.000E+00   6.000E-02   0.000E+00   0.000E+00           T           T   1.136E+05   6.100E-01   0.000E+00   0.000E+00   0.000E+00   0.000E+00   0.000E+00         -           -           -  
    77           2     14.4338     25.0000    -10.0000   6.000E+00   6.000E-02   0.000E+00   0.000E+00           T           T   1.136E+05   6.100E-01   0.000E+00   0.000E+00   0.000E+00   0.000E+00   0.000E+00         -           -           -  
    78           2     14.4338     25.0000     -9.0000   6.000E+00   6.000E-02   0.000E+00   0.000E+00           T           T   1.136E+05   6.100E-01   0.000E+00   0.000E+00   0.000E+00   0.000E+00   0.000E+00         -           -           -  
    79           2     14.4338     25.0000     -8.0000   6.000E+00   6.000E-02   0.000E+00   0.000E+00           T           T   1.136E+05   6.100E-01   0.000E+00   0.000E+00   0.000E+00   0.000E+00   0.000E+00         -           -           -  
    80           2     14.4338     25.0000     -7.0000   6.000E+00   6.000E-02   0.000E+00   0.000E+00           T           T   9.430E+04   6.100E-01   0.000E+00   0.000E+00   0.000E+00   0.000E+00   0.000E+00         -           -           -  
    81           2     14.4338     25.0000     -6.0000   6.000E+00   6.000E-02   0.000E+00   0.000E+00           T           F   0.000E+00   6.100E-01   0.000E+00   0.000E+00   0.000E+00   0.000E+00   0.000E+00         -           -           -  
    82           2     14.4338     25.0000     -5.0000   6.000E+00   6.000E-02   0.000E+00   0.000E+00           T           F   0.000E+00   6.100E-01   0.000E+00   0.000E+00   0.000E+00   0.000E+00   0.000E+00         -           -           -  
    83           2     14.4338     25.0000     -4.0000   6.000E+00   6.000E-02   0.000E+00   0.000E+00           T           F   0.000E+00   6.100E-01   0.000E+00   0.000E+00   0.000E+00   0.000E+00   0.000E+00         -           -           -  
    84           2     14.4338     25.0000     -3.0000   6.000E+00   6.000E-02   0.000E+00   0.000E+00           T           F   0.000E+00   6.100E-01   0.000E+00   0.000E+00   0.000E+00   0.000E+00   0.000E+00         -           -           -  
    85           2     14.4338     25.0000     -2.0000   6.000E+00   6.000E-02   0.000E+00   0.000E+00           T           F   0.000E+00   6.100E-01   0.000E+00   0.000E+00   0.000E+00   0.000E+00   0.000E+00         -           -           -  
    86           2     14.4338     25.0000     -1.0000   6.000E+00   6.000E-02   0.000E+00   0.000E+00           T           F   0.000E+00   6.100E-01   0.000E+00   0.000E+00   0.000E+00   0.000E+00   0.000E+00         -           -           -  
    87           2     14.4338     25.0000      0.0000   6.000E+00   6.000E-02   0.000E+00   0.000E+00           T           F   0.000E+00   6.100E-01   0.000E+00   0.000E+00   0.000E+00   0.000E+00   0.000E+00         -           -           -  
    88           2     14.4338     25.0000      1.0000   6.000E+00   6.000E-02   0.000E+00   0.000E+00           T           F   0.000E+00   6.100E-01   0.000E+00   0.000E+00   0.000E+00   0.000E+00   0.000E+00         -           -           -  
    89           2     14.4338     25.0000      2.0000   6.000E+00   6.000E-02   0.000E+00   0.000E+00           T           F   0.000E+00   6.100E-01   0.000E+00   0.000E+00   0.000E+00   0.000E+00   0.000E+00         -           -           -  
    90           2     14.4338     25.0000      3.0000   6.000E+00   6.000E-02   0.000E+00   0.000E+00           T           F   0.000E+00   6.100E-01   0.000E+00   0.000E+00   0.000E+00   0.000E+00   0.000E+00         -           -           -  
    91           2     14.4338     25.0000      4.0000   6.000E+00   6.000E-02   0.000E+00   0.000E+00           T           F   0.000E+00   6.100E-01   0.000E+00   0.000E+00   0.000E+00   0.000E+00   0.000E+00         -           -           -  
    92           2     14.4338     25.0000      5.0000   6.000E+00   6.000E-02   0.000E+00   0.000E+00           T           F   0.000E+00   6.100E-01   0.000E+00   0.000E+00   0.000E+00   0.000E+00   0.000E+00         -           -           -  
    93           2     14.4338     25.0000      6.0000   6.000E+00   6.000E-02   0.000E+00   0.000E+00           T           F   0.000E+00   6.100E-01   0.000E+00   0.000E+00   0.000E+00   0.000E+00   0.000E+00         -           -           -  
    94           2     14.4338     25.0000      7.0000   6.000E+00   6.000E-02   0.000E+00   0.000E+00           T           F   0.000E+00   6.100E-01   0.000E+00   0.000E+00   0.000E+00   0.000E+00   0.000E+00         -           -           -  
    95           2     14.4338     25.0000      8.0000   6.000E+00   6.000E-02   0.000E+00   0.000E+00           T           F   0.000E+00   6.100E-01   0.000E+00   0.000E+00   0.000E+00   0.000E+00   0.000E+00         -           -           -  
    96           2     14.4338     25.0000      9.0000   6.000E+00   6.000E-02   0.000E+00   0.000E+00           T           F   0.000E+00   6.100E-01   0.000E+00   0.000E+00   0.000E+00   0.000E+00   0.000E+00         -           -           -  
    97           2     14.4338     25.0000     10.0000   6.000E+00   6.000E-02   0.000E+00   0.000E+00           T           F   0.000E+00   6.100E-01   0.000E+00   0.000E+00   0.000E+00   0.000E+00   0.000E+00         -           -           -  
    98           2     14.4338     25.0000     11.0000   6.000E+00   6.000E-02   0.000E+00   0.000E+00           T           F   0.000E+00   6.100E-01   0.000E+00   0.000E+00   0.000E+00   0.000E+00   0.000E+00         -           -           -  
    99           3    -28.8675      0.0000    -13.0000   6.000E+00   6.000E-02   0.000E+00   0.000E+00           T           T   1.136E+05   6.100E-01   0.000E+00   0.000E+00   0.000E+00   0.000E+00   0.000E+00         -           -           -  
   100           3    -28.8675      0.0000    -12.0000   6.000E+00   6.000E-02   0.000E+00   0.000E+00           T           T   1.136E+05   6.100E-01   0.000E+00   0.000E+00   0.000E+00   0.000E+00   0.000E+00         -           -           -  
   101           3    -28.8675      0.0000    -11.0000   6.000E+00   6.000E-02   0.000E+00   0.000E+00           T           T   1.136E+05   6.100E-01   0.000E+00   0.000E+00   0.000E+00   0.000E+00   0.000E+00         -           -           -  
   102           3    -28.8675      0.0000    -10.0000   6.000E+00   6.000E-02   0.000E+00   0.000E+00           T           T   1.136E+05   6.100E-01   0.000E+00   0.000E+00   0.000E+00   0.000E+00   0.000E+00         -           -           -  
   103           3    -28.8675      0.0000     -9.0000   6.000E+00   6.000E-02   0.000E+00   0.000E+00           T           T   1.136E+05   6.100E-01   0.000E+00   0.000E+00   0.000E+00   0.000E+00   0.000E+00         -           -           -  
   104           3    -28.8675      0.0000     -8.0000   6.000E+00   6.000E-02   0.000E+00   0.000E+00           T           T   1.136E+05   6.100E-01   0.000E+00   0.000E+00   0.000E+00   0.000E+00   0.000E+00         -           -           -  
   105           3    -28.8675      0.0000     -7.0000   6.000E+00   6.000E-02   0.000E+00   0.000E+00           T           T   9.430E+04   6.100E-01   0.000E+00   0.000E+00   0.000E+00   0.000E+00   0.000E+00         -           -           -  
   106           3    -28.8675      0.0000     -6.0000   6.000E+00   6.000E-02   0.000E+00   0.000E+00           T           F   0.000E+00   6.100E-01   0.000E+00   0.000E+00   0.000E+00   0.000E+00   0.000E+00         -           -           -  
   107           3    -28.8675      0.0000     -5.0000   6.000E+00   6.000E-02   0.000E+00   0.000E+00           T           F   0.000E+00   6.100E-01   0.000E+00   0.000E+00   0.000E+00   0.000E+00   0.000E+00         -           -           -  
   108           3    -28.8675      0.0000     -4.0000   6.000E+00   6.000E-02   0.000E+00   0.000E+00           T           F   0.000E+00   6.100E-01   0.000E+00   0.000E+00   0.000E+00   0.000E+00   0.000E+00         -           -           -  
   109           3    -28.8675      0.0000     -3.0000   6.000E+00   6.000E-02   0.000E+00   0.000E+00           T           F   0.000E+00   6.100E-01   0.000E+00   0.000E+00   0.000E+00   0.000E+00   0.000E+00         -           -           -  
   110           3    -28.8675      0.0000     -2.0000   6.000E+00   6.000E-02   0.000E+00   0.000E+00           T           F   0.000E+00   6.100E-01   0.000E+00   0.000E+00   0.000E+00   0.000E+00   0.000E+00         -           -           -  
   111           3    -28.8675      0.0000     -1.0000   6.000E+00   6.000E-02   0.000E+00   0.000E+00           T           F   0.000E+00   6.100E-01   0.000E+00   0.000E+00   0.000E+00   0.000E+00   0.000E+00         -           -           -  
   112           3    -28.8675      0.0000      0.0000   6.000E+00   6.000E-02   0.000E+00   0.000E+00           T           F   0.000E+00   6.100E-01   0.000E+00   0.000E+00   0.000E+00   0.000E+00   0.000E+00         -           -           -  
   113           3    -28.8675      0.0000      1.0000   6.000E+00   6.000E-02   0.000E+00   0.000E+00           T           F   0.000E+00   6.100E-01   0.000E+00   0.000E+00   0.000E+00   0.000E+00   0.000E+00         -           -           -  
   114           3    -28.8675      0.0000      2.0000   6.000E+00   6.000E-02   0.000E+00   0.000E+00           T           F   0.000E+00   6.100E-01   0.000E+00   0.000E+00   0.000E+00   0.000E+00   0.000E+00         -           -           -  
   115           3    -28.8675      0.0000      3.0000   6.000E+00   6.000E-02   0.000E+00   0.000E+00           T           F   0.000E+00   6.100E-01   0.000E+00   0.000E+00   0.000E+00   0.000E+00   0.000E+00         -           -           -  
   116           3    -28.8675      0.0000      4.0000   6.000E+00   6.000E-02   0.000E+00   0.000E+00           T           F   0.000E+00   6.100E-01   0.000E+00   0.000E+00   0.000E+00   0.000E+00   0.000E+00         -           -           -  
   117           3    -28.8675      0.0000      5.0000   6.000E+00   6.000E-02   0.000E+00   0.000E+00           T           F   0.000E+00   6.100E-01   0.000E+00   0.000E+00   0.000E+00   0.000E+00   0.000E+00         -           -           -  
   118           3    -28.8675      0.0000      6.0000   6.000E+00   6.000E-02   0.000E+00   0.000E+00           T           F   0.000E+00   6.100E-01   0.000E+00   0.000E+00   0.000E+00   0.000E+00   0.000E+00         -           -           -  
   119           3    -28.8675      0.0000      7.0000   6.000E+00   6.000E-02   0.000E+00   0.000E+00           T           F   0.000E+00   6.100E-01   0.000E+00   0.000E+00   0.000E+00   0.000E+00   0.000E+00         -           -           -  
   120           3    -28.8675      0.0000      8.0000   6.000E+00   6.000E-02   0.000E+00   0.000E+00           T           F   0.000E+00   6.100E-01   0.000E+00   0.000E+00   0.000E+00   0.000E+00   0.000E+00         -           -           -  
   121           3    -28.8675      0.0000      9.0000   6.000E+00   6.000E-02   0.000E+00   0.000E+00           T           F   0.000E+00   6.100E-01   0.000E+00   0.000E+00   0.000E+00   0.000E+00   0.000E+00         -           -           -  
   122           3    -28.8675      0.0000     10.0000   6.000E+00   6.000E-02   0.000E+00   0.000E+00           T           F   0.000E+00   6.100E-01   0.000E+00   0.000E+00   0.000E+00   0.000E+00   0.000E+00         -           -           -  
   123           3    -28.8675      0.0000     11.0000   6.000E+00   6.000E-02   0.000E+00   0.000E+00           T           F   0.000E+00   6.100E-01   0.000E+00   0.000E+00   0.000E+00   0.000E+00   0.000E+00         -           -           -  
   124           4     14.4338    -25.0000    -13.0000   6.000E+00   6.000E-02   0.000E+00   0.000E+00           T           T   1.136E+05   6.100E-01   0.000E+00   0.000E+00   0.000E+00   0.000E+00   0.000E+00         -           -           -  
   125           4     14.4338    -25.0000    -12.0000   6.000E+00   6.000E-02   0.000E+00   0.000E+00           T           T   1.136E+05   6.100E-01   0.000E+00   0.000E+00   0.000E+00   0.000E+00   0.000E+00         -           -           -  
   126           4     14.4338    -25.0000    -11.0000   6.000E+00   6.000E-02   0.000E+00   0.000E+00           T           T   1.136E+05   6.100E-01   0.000E+00   0.000E+00   0.000E+00   0.000E+00   0.000E+00         -           -           -  
   127           4     14.4338    -25.0000    -10.0000   6.000E+00   6.000E-02   0.000E+00   0.000E+00           T           T   1.136E+05   6.100E-01   0.000E+00   0.000E+00   0.000E+00   0.000E+00   0.000E+00         -           -           -  
   128           4     14.4338    -25.0000     -9.0000   6.000E+00   6.000E-02   0.000E+00   0.000E+00           T           T   1.136E+05   6.100E-01   0.000E+00   0.000E+00   0.000E+00   0.000E+00   0.000E+00         -           -           -  
   129           4     14.4338    -25.0000     -8.0000   6.000E+00   6.000E-02   0.000E+00   0.000E+00           T           T   1.136E+05   6.100E-01   0.000E+00   0.000E+00   0.000E+00   0.000E+00   0.000E+00         -           -           -  
   130           4     14.4338    -25.0000     -7.0000   6.000E+00   6.000E-02   0.000E+00   0.000E+00           T           T   9.430E+04   6.100E-01   0.000E+00   0.000E+00   0.000E+00   0.000E+00   0.000E+00         -           -           -  
   131           4     14.4338    -25.0000     -6.0000   6.000E+00   6.000E-02   0.000E+00   0.000E+00           T           F   0.000E+00   6.100E-01   0.000E+00   0.000E+00   0.000E+00   0.000E+00   0.000E+00         -           -           -  
   132           4     14.4338    -25.0000     -5.0000   6.000E+00   6.000E-02   0.000E+00   0.000E+00           T           F   0.000E+00   6.100E-01   0.000E+00   0.000E+00   0.000E+00   0.000E+00   0.000E+00         -           -           -  
   133           4     14.4338    -25.0000     -4.0000   6.000E+00   6.000E-02   0.000E+00   0.000E+00           T           F   0.000E+00   6.100E-01   0.000E+00   0.000E+00   0.000E+00   0.000E+00   0.000E+00         -           -           -  
   134           4     14.4338    -25.0000     -3.0000   6.000E+00   6.000E-02   0.000E+00   0.000E+00           T           F   0.000E+00   6.100E-01   0.000E+00   0.000E+00   0.000E+00   0.000E+00   0.000E+00         -           -           -  
   135           4     14.4338    -25.0000     -2.0000   6.000E+00   6.000E-02   0.000E+00   0.000E+00           T           F   0.000E+00   6.100E-01   0.000E+00   0.000E+00   0.000E+00   0.000E+00   0.000E+00         -           -           -  
   136           4     14.4338    -25.0000     -1.0000   6.000E+00   6.000E-02   0.000E+00   0.000E+00           T           F   0.000E+00   6.100E-01   0.000E+00   0.000E+00   0.000E+00   0.000E+00   0.000E+00         -           -           -  
   137           4     14.4338    -25.0000      0.0000   6.000E+00   6.000E-02   0.000E+00   0.000E+00           T           F   0.000E+00   6.100E-01   0.000E+00   0.000E+00   0.000E+00   0.000E+00   0.000E+00         -           -           -  
   138           4     14.4338    -25.0000      1.0000   6.000E+00   6.000E-02   0.000E+00   0.000E+00           T           F   0.000E+00   6.100E-01   0.000E+00   0.000E+00   0.000E+00   0.000E+00   0.000E+00         -           -           -  
   139           4     14.4338    -25.0000      2.0000   6.000E+00   6.000E-02   0.000E+00   0.000E+00           T           F   0.000E+00   6.100E-01   0.000E+00   0.000E+00   0.000E+00   0.000E+00   0.000E+00         -           -           -  
   140           4     14.4338    -25.0000      3.0000   6.000E+00   6.000E-02   0.000E+00   0.000E+00           T           F   0.000E+00   6.100E-01   0.000E+00   0.000E+00   0.000E+00   0.000E+00   0.000E+00         -           -           -  
   141           4     14.4338    -25.0000      4.0000   6.000E+00   6.000E-02   0.000E+00   0.000E+00           T           F   0.000E+00   6.100E-01   0.000E+00   0.000E+00   0.000E+00   0.000E+00   0.000E+00         -           -           -  
   142           4     14.4338    -25.0000      5.0000   6.000E+00   6.000E-02   0.000E+00   0.000E+00           T           F   0.000E+00   6.100E-01   0.000E+00   0.000E+00   0.000E+00   0.000E+00   0.000E+00         -           -           -  
   143           4     14.4338    -25.0000      6.0000   6.000E+00   6.000E-02   0.000E+00   0.000E+00           T           F   0.000E+00   6.100E-01   0.000E+00   0.000E+00   0.000E+00   0.000E+00   0.000E+00         -           -           -  
   144           4     14.4338    -25.0000      7.0000   6.000E+00   6.000E-02   0.000E+00   0.000E+00           T           F   0.000E+00   6.100E-01   0.000E+00   0.000E+00   0.000E+00   0.000E+00   0.000E+00         -           -           -  
   145           4     14.4338    -25.0000      8.0000   6.000E+00   6.000E-02   0.000E+00   0.000E+00           T           F   0.000E+00   6.100E-01   0.000E+00   0.000E+00   0.000E+00   0.000E+00   0.000E+00         -           -           -  
   146           4     14.4338    -25.0000      9.0000   6.000E+00   6.000E-02   0.000E+00   0.000E+00           T           F   0.000E+00   6.100E-01   0.000E+00   0.000E+00   0.000E+00   0.000E+00   0.000E+00         -           -           -  
   147           4     14.4338    -25.0000     10.0000   6.000E+00   6.000E-02   0.000E+00   0.000E+00           T           F   0.000E+00   6.100E-01   0.000E+00   0.000E+00   0.000E+00   0.000E+00   0.000E+00         -           -           -  
   148           4     14.4338    -25.0000     11.0000   6.000E+00   6.000E-02   0.000E+00   0.000E+00           T           F   0.000E+00   6.100E-01   0.000E+00   0.000E+00   0.000E+00   0.000E+00   0.000E+00         -           -           -  
   149           5     14.4338     25.0000    -18.9500   1.200E+01   6.000E-02   0.000E+00   0.000E+00           T           T   4.545E+05   6.800E-01   0.000E+00   0.000E+00   0.000E+00   0.000E+00   0.000E+00         -           -           -  
   150           5     14.4338     25.0000    -17.9600   1.200E+01   6.000E-02   0.000E+00   0.000E+00           T           T   4.545E+05   6.800E-01   0.000E+00   0.000E+00   0.000E+00   0.000E+00   0.000E+00         -           -           -  
   151           5     14.4338     25.0000    -16.9700   1.200E+01   6.000E-02   0.000E+00   0.000E+00           T           T   4.545E+05   6.800E-01   0.000E+00   0.000E+00   0.000E+00   0.000E+00   0.000E+00         -           -           -  
   152           5     14.4338     25.0000    -15.9800   1.200E+01   6.000E-02   0.000E+00   0.000E+00           T           T   4.545E+05   6.800E-01   0.000E+00   0.000E+00   0.000E+00   0.000E+00   0.000E+00         -           -           -  
   153           5     14.4338     25.0000    -14.9900   1.200E+01   6.000E-02   0.000E+00   0.000E+00           T           T   4.591E+04   6.800E-01   0.000E+00   0.000E+00   0.000E+00   0.000E+00   0.000E+00         -           -           -  
   154           6    -28.8675      0.0000    -18.9500   1.200E+01   6.000E-02   0.000E+00   0.000E+00           T           T   4.545E+05   6.800E-01   0.000E+00   0.000E+00   0.000E+00   0.000E+00   0.000E+00         -           -           -  
   155           6    -28.8675      0.0000    -17.9600   1.200E+01   6.000E-02   0.000E+00   0.000E+00           T           T   4.545E+05   6.800E-01   0.000E+00   0.000E+00   0.000E+00   0.000E+00   0.000E+00         -           -           -  
   156           6    -28.8675      0.0000    -16.9700   1.200E+01   6.000E-02   0.000E+00   0.000E+00           T           T   4.545E+05   6.800E-01   0.000E+00   0.000E+00   0.000E+00   0.000E+00   0.000E+00         -           -           -  
   157           6    -28.8675      0.0000    -15.9800   1.200E+01   6.000E-02   0.000E+00   0.000E+00           T           T   4.545E+05   6.800E-01   0.000E+00   0.000E+00   0.000E+00   0.000E+00   0.000E+00         -           -           -  
   158           6    -28.8675      0.0000    -14.9900   1.200E+01   6.000E-02   0.000E+00   0.000E+00           T           T   4.591E+04   6.800E-01   0.000E+00   0.000E+00   0.000E+00   0.000E+00   0.000E+00         -           -           -  
   159           7     14.4338    -25.0000    -18.9500   1.200E+01   6.000E-02   0.000E+00   0.000E+00           T           T   4.545E+05   6.800E-01   0.000E+00   0.000E+00   0.000E+00   0.000E+00   0.000E+00         -           -           -  
   160           7     14.4338    -25.0000    -17.9600   1.200E+01   6.000E-02   0.000E+00   0.000E+00           T           T   4.545E+05   6.800E-01   0.000E+00   0.000E+00   0.000E+00   0.000E+00   0.000E+00         -           -           -  
   161           7     14.4338    -25.0000    -16.9700   1.200E+01   6.000E-02   0.000E+00   0.000E+00           T           T   4.545E+05   6.800E-01   0.000E+00   0.000E+00   0.000E+00   0.000E+00   0.000E+00         -           -           -  
   162           7     14.4338    -25.0000    -15.9800   1.200E+01   6.000E-02   0.000E+00   0.000E+00           T           T   4.545E+05   6.800E-01   0.000E+00   0.000E+00   0.000E+00   0.000E+00   0.000E+00         -           -           -  
   163           7     14.4338    -25.0000    -14.9900   1.200E+01   6.000E-02   0.000E+00   0.000E+00           T           T   4.591E+04   6.800E-01   0.000E+00   0.000E+00   0.000E+00   0.000E+00   0.000E+00         -           -           -  
   164           8      8.3716     21.5000     10.0000   8.000E-01   1.750E-02   0.000E+00   0.000E+00           T           F   0.000E+00   6.300E-01   0.000E+00   0.000E+00   0.000E+00   0.000E+00   0.000E+00         -           -           -  
   165           8      7.5056     21.0000     10.0000   8.000E-01   1.750E-02   0.000E+00   0.000E+00           T           F   0.000E+00   6.300E-01   0.000E+00   0.000E+00   0.000E+00   0.000E+00   0.000E+00         -           -           -  
   166           8      6.6395     20.5000     10.0000   8.000E-01   1.750E-02   0.000E+00   0.000E+00           T           F   0.000E+00   6.300E-01   0.000E+00   0.000E+00   0.000E+00   0.000E+00   0.000E+00         -           -           -  
   167           8      5.7735     20.0000     10.0000   8.000E-01   1.750E-02   0.000E+00   0.000E+00           T           F   0.000E+00   6.300E-01   0.000E+00   0.000E+00   0.000E+00   0.000E+00   0.000E+00         -           -           -  
   168           8      4.9075     19.5000     10.0000   8.000E-01   1.750E-02   0.000E+00   0.000E+00           T           F   0.000E+00   6.300E-01   0.000E+00   0.000E+00   0.000E+00   0.000E+00   0.000E+00         -           -           -  
   169           8      4.0415     19.0000     10.0000   8.000E-01   1.750E-02   0.000E+00   0.000E+00           T           F   0.000E+00   6.300E-01   0.000E+00   0.000E+00   0.000E+00   0.000E+00   0.000E+00         -           -           -  
   170           8      3.1754     18.5000     10.0000   8.000E-01   1.750E-02   0.000E+00   0.000E+00           T           F   0.000E+00   6.300E-01   0.000E+00   0.000E+00   0.000E+00   0.000E+00   0.000E+00         -           -           -  
   171           8      2.3094     18.0000     10.0000   8.000E-01   1.750E-02   0.000E+00   0.000E+00           T           F   0.000E+00   6.300E-01   0.000E+00   0.000E+00   0.000E+00   0.000E+00   0.000E+00         -           -           -  
   172           8      1.4434     17.5000     10.0000   8.000E-01   1.750E-02   0.000E+00   0.000E+00           T           F   0.000E+00   6.300E-01   0.000E+00   0.000E+00   0.000E+00   0.000E+00   0.000E+00         -           -           -  
   173           8      0.5774     17.0000     10.0000   8.000E-01   1.750E-02   0.000E+00   0.000E+00           T           F   0.000E+00   6.300E-01   0.000E+00   0.000E+00   0.000E+00   0.000E+00   0.000E+00         -           -           -  
   174           8     -0.2887     16.5000     10.0000   8.000E-01   1.750E-02   0.000E+00   0.000E+00           T           F   0.000E+00   6.300E-01   0.000E+00   0.000E+00   0.000E+00   0.000E+00   0.000E+00         -           -           -  
   175           8     -1.1547     16.0000     10.0000   8.000E-01   1.750E-02   0.000E+00   0.000E+00           T           F   0.000E+00   6.300E-01   0.000E+00   0.000E+00   0.000E+00   0.000E+00   0.000E+00         -           -           -  
   176           8     -2.0207     15.5000     10.0000   8.000E-01   1.750E-02   0.000E+00   0.000E+00           T           F   0.000E+00   6.300E-01   0.000E+00   0.000E+00   0.000E+00   0.000E+00   0.000E+00         -           -           -  
   177           8     -2.8867     15.0000     10.0000   8.000E-01   1.750E-02   0.000E+00   0.000E+00           T           F   0.000E+00   6.300E-01   0.000E+00   0.000E+00   0.000E+00   0.000E+00   0.000E+00         -           -           -  
   178           8     -3.7528     14.5000     10.0000   8.000E-01   1.750E-02   0.000E+00   0.000E+00           T           F   0.000E+00   6.300E-01   0.000E+00   0.000E+00   0.000E+00   0.000E+00   0.000E+00         -           -           -  
   179           8     -4.6188     14.0000     10.0000   8.000E-01   1.750E-02   0.000E+00   0.000E+00           T           F   0.000E+00   6.300E-01   0.000E+00   0.000E+00   0.000E+00   0.000E+00   0.000E+00         -           -           -  
   180           8     -5.4848     13.5000     10.0000   8.000E-01   1.750E-02   0.000E+00   0.000E+00           T           F   0.000E+00   6.300E-01   0.000E+00   0.000E+00   0.000E+00   0.000E+00   0.000E+00         -           -           -  
   181           8     -6.3508     13.0000     10.0000   8.000E-01   1.750E-02   0.000E+00   0.000E+00           T           F   0.000E+00   6.300E-01   0.000E+00   0.000E+00   0.000E+00   0.000E+00   0.000E+00         -           -           -  
   182           8     -7.2168     12.5000     10.0000   8.000E-01   1.750E-02   0.000E+00   0.000E+00           T           F   0.000E+00   6.300E-01   0.000E+00   0.000E+00   0.000E+00   0.000E+00   0.000E+00         -           -           -  
   183           8     -8.0829     12.0000     10.0000   8.000E-01   1.750E-02   0.000E+00   0.000E+00           T           F   0.000E+00   6.300E-01   0.000E+00   0.000E+00   0.000E+00   0.000E+00   0.000E+00         -           -           -  
   184           8     -8.9489     11.5000     10.0000   8.000E-01   1.750E-02   0.000E+00   0.000E+00           T           F   0.000E+00   6.300E-01   0.000E+00   0.000E+00   0.000E+00   0.000E+00   0.000E+00         -           -           -  
   185           8     -9.8149     11.0000     10.0000   8.000E-01   1.750E-02   0.000E+00   0.000E+00           T           F   0.000E+00   6.300E-01   0.000E+00   0.000E+00   0.000E+00   0.000E+00   0.000E+00         -           -           -  
   186           8    -10.6809     10.5000     10.0000   8.000E-01   1.750E-02   0.000E+00   0.000E+00           T           F   0.000E+00   6.300E-01   0.000E+00   0.000E+00   0.000E+00   0.000E+00   0.000E+00         -           -           -  
   187           8    -11.5470     10.0000     10.0000   8.000E-01   1.750E-02   0.000E+00   0.000E+00           T           F   0.000E+00   6.300E-01   0.000E+00   0.000E+00   0.000E+00   0.000E+00   0.000E+00         -           -           -  
   188           8    -12.4130      9.5000     10.0000   8.000E-01   1.750E-02   0.000E+00   0.000E+00           T           F   0.000E+00   6.300E-01   0.000E+00   0.000E+00   0.000E+00   0.000E+00   0.000E+00         -           -           -  
   189           8    -13.2790      9.0000     10.0000   8.000E-01   1.750E-02   0.000E+00   0.000E+00           T           F   0.000E+00   6.300E-01   0.000E+00   0.000E+00   0.000E+00   0.000E+00   0.000E+00         -           -           -  
   190           8    -14.1450      8.5000     10.0000   8.000E-01   1.750E-02   0.000E+00   0.000E+00           T           F   0.000E+00   6.300E-01   0.000E+00   0.000E+00   0.000E+00   0.000E+00   0.000E+00         -           -           -  
   191           8    -15.0111      8.0000     10.0000   8.000E-01   1.750E-02   0.000E+00   0.000E+00           T           F   0.000E+00   6.300E-01   0.000E+00   0.000E+00   0.000E+00   0.000E+00   0.000E+00         -           -           -  
   192           8    -15.8771      7.5000     10.0000   8.000E-01   1.750E-02   0.000E+00   0.000E+00           T           F   0.000E+00   6.300E-01   0.000E+00   0.000E+00   0.000E+00   0.000E+00   0.000E+00         -           -           -  
   193           8    -16.7431      7.0000     10.0000   8.000E-01   1.750E-02   0.000E+00   0.000E+00           T           F   0.000E+00   6.300E-01   0.000E+00   0.000E+00   0.000E+00   0.000E+00   0.000E+00         -           -           -  
   194           8    -17.6091      6.5000     10.0000   8.000E-01   1.750E-02   0.000E+00   0.000E+00           T           F   0.000E+00   6.300E-01   0.000E+00   0.000E+00   0.000E+00   0.000E+00   0.000E+00         -           -           -  
   195           8    -18.4752      6.0000     10.0000   8.000E-01   1.750E-02   0.000E+00   0.000E+00           T           F   0.000E+00   6.300E-01   0.000E+00   0.000E+00   0.000E+00   0.000E+00   0.000E+00         -           -           -  
   196           8    -19.3412      5.5000     10.0000   8.000E-01   1.750E-02   0.000E+00   0.000E+00           T           F   0.000E+00   6.300E-01   0.000E+00   0.000E+00   0.000E+00   0.000E+00   0.000E+00         -           -           -  
   197           8    -20.2072      5.0000     10.0000   8.000E-01   1.750E-02   0.000E+00   0.000E+00           T           F   0.000E+00   6.300E-01   0.000E+00   0.000E+00   0.000E+00   0.000E+00   0.000E+00         -           -           -  
   198           8    -21.0732      4.5000     10.0000   8.000E-01   1.750E-02   0.000E+00   0.000E+00           T           F   0.000E+00   6.300E-01   0.000E+00   0.000E+00   0.000E+00   0.000E+00   0.000E+00         -           -           -  
   199           8    -21.9393      4.0000     10.0000   8.000E-01   1.750E-02   0.000E+00   0.000E+00           T           F   0.000E+00   6.300E-01   0.000E+00   0.000E+00   0.000E+00   0.000E+00   0.000E+00         -           -           -  
   200           8    -22.8053      3.5000     10.0000   8.000E-01   1.750E-02   0.000E+00   0.000E+00           T           F   0.000E+00   6.300E-01   0.000E+00   0.000E+00   0.000E+00   0.000E+00   0.000E+00         -           -           -  
   201           9    -22.8053     -3.5000     10.0000   8.000E-01   1.750E-02   0.000E+00   0.000E+00           T           F   0.000E+00   6.300E-01   0.000E+00   0.000E+00   0.000E+00   0.000E+00   0.000E+00         -           -           -  
   202           9    -21.9393     -4.0000     10.0000   8.000E-01   1.750E-02   0.000E+00   0.000E+00           T           F   0.000E+00   6.300E-01   0.000E+00   0.000E+00   0.000E+00   0.000E+00   0.000E+00         -           -           -  
   203           9    -21.0732     -4.5000     10.0000   8.000E-01   1.750E-02   0.000E+00   0.000E+00           T           F   0.000E+00   6.300E-01   0.000E+00   0.000E+00   0.000E+00   0.000E+00   0.000E+00         -           -           -  
   204           9    -20.2072     -5.0000     10.0000   8.000E-01   1.750E-02   0.000E+00   0.000E+00           T           F   0.000E+00   6.300E-01   0.000E+00   0.000E+00   0.000E+00   0.000E+00   0.000E+00         -           -           -  
   205           9    -19.3412     -5.5000     10.0000   8.000E-01   1.750E-02   0.000E+00   0.000E+00           T           F   0.000E+00   6.300E-01   0.000E+00   0.000E+00   0.000E+00   0.000E+00   0.000E+00         -           -           -  
   206           9    -18.4752     -6.0000     10.0000   8.000E-01   1.750E-02   0.000E+00   0.000E+00           T           F   0.000E+00   6.300E-01   0.000E+00   0.000E+00   0.000E+00   0.000E+00   0.000E+00         -           -           -  
   207           9    -17.6091     -6.5000     10.0000   8.000E-01   1.750E-02   0.000E+00   0.000E+00           T           F   0.000E+00   6.300E-01   0.000E+00   0.000E+00   0.000E+00   0.000E+00   0.000E+00         -           -           -  
   208           9    -16.7431     -7.0000     10.0000   8.000E-01   1.750E-02   0.000E+00   0.000E+00           T           F   0.000E+00   6.300E-01   0.000E+00   0.000E+00   0.000E+00   0.000E+00   0.000E+00         -           -           -  
   209           9    -15.8771     -7.5000     10.0000   8.000E-01   1.750E-02   0.000E+00   0.000E+00           T           F   0.000E+00   6.300E-01   0.000E+00   0.000E+00   0.000E+00   0.000E+00   0.000E+00         -           -           -  
   210           9    -15.0111     -8.0000     10.0000   8.000E-01   1.750E-02   0.000E+00   0.000E+00           T           F   0.000E+00   6.300E-01   0.000E+00   0.000E+00   0.000E+00   0.000E+00   0.000E+00         -           -           -  
   211           9    -14.1450     -8.5000     10.0000   8.000E-01   1.750E-02   0.000E+00   0.000E+00           T           F   0.000E+00   6.300E-01   0.000E+00   0.000E+00   0.000E+00   0.000E+00   0.000E+00         -           -           -  
   212           9    -13.2790     -9.0000     10.0000   8.000E-01   1.750E-02   0.000E+00   0.000E+00           T           F   0.000E+00   6.300E-01   0.000E+00   0.000E+00   0.000E+00   0.000E+00   0.000E+00         -           -           -  
   213           9    -12.4130     -9.5000     10.0000   8.000E-01   1.750E-02   0.000E+00   0.000E+00           T           F   0.000E+00   6.300E-01   0.000E+00   0.000E+00   0.000E+00   0.000E+00   0.000E+00         -           -           -  
   214           9    -11.5470    -10.0000     10.0000   8.000E-01   1.750E-02   0.000E+00   0.000E+00           T           F   0.000E+00   6.300E-01   0.000E+00   0.000E+00   0.000E+00   0.000E+00   0.000E+00         -           -           -  
   215           9    -10.6809    -10.5000     10.0000   8.000E-01   1.750E-02   0.000E+00   0.000E+00           T           F   0.000E+00   6.300E-01   0.000E+00   0.000E+00   0.000E+00   0.000E+00   0.000E+00         -           -           -  
   216           9     -9.8149    -11.0000     10.0000   8.000E-01   1.750E-02   0.000E+00   0.000E+00           T           F   0.000E+00   6.300E-01   0.000E+00   0.000E+00   0.000E+00   0.000E+00   0.000E+00         -           -           -  
   217           9     -8.9489    -11.5000     10.0000   8.000E-01   1.750E-02   0.000E+00   0.000E+00           T           F   0.000E+00   6.300E-01   0.000E+00   0.000E+00   0.000E+00   0.000E+00   0.000E+00         -           -           -  
   218           9     -8.0829    -12.0000     10.0000   8.000E-01   1.750E-02   0.000E+00   0.000E+00           T           F   0.000E+00   6.300E-01   0.000E+00   0.000E+00   0.000E+00   0.000E+00   0.000E+00         -           -           -  
   219           9     -7.2168    -12.5000     10.0000   8.000E-01   1.750E-02   0.000E+00   0.000E+00           T           F   0.000E+00   6.300E-01   0.000E+00   0.000E+00   0.000E+00   0.000E+00   0.000E+00         -           -           -  
   220           9     -6.3508    -13.0000     10.0000   8.000E-01   1.750E-02   0.000E+00   0.000E+00           T           F   0.000E+00   6.300E-01   0.000E+00   0.000E+00   0.000E+00   0.000E+00   0.000E+00         -           -           -  
   221           9     -5.4848    -13.5000     10.0000   8.000E-01   1.750E-02   0.000E+00   0.000E+00           T           F   0.000E+00   6.300E-01   0.000E+00   0.000E+00   0.000E+00   0.000E+00   0.000E+00         -           -           -  
   222           9     -4.6188    -14.0000     10.0000   8.000E-01   1.750E-02   0.000E+00   0.000E+00           T           F   0.000E+00   6.300E-01   0.000E+00   0.000E+00   0.000E+00   0.000E+00   0.000E+00         -           -           -  
   223           9     -3.7528    -14.5000     10.0000   8.000E-01   1.750E-02   0.000E+00   0.000E+00           T           F   0.000E+00   6.300E-01   0.000E+00   0.000E+00   0.000E+00   0.000E+00   0.000E+00         -           -           -  
   224           9     -2.8867    -15.0000     10.0000   8.000E-01   1.750E-02   0.000E+00   0.000E+00           T           F   0.000E+00   6.300E-01   0.000E+00   0.000E+00   0.000E+00   0.000E+00   0.000E+00         -           -           -  
   225           9     -2.0207    -15.5000     10.0000   8.000E-01   1.750E-02   0.000E+00   0.000E+00           T           F   0.000E+00   6.300E-01   0.000E+00   0.000E+00   0.000E+00   0.000E+00   0.000E+00         -           -           -  
   226           9     -1.1547    -16.0000     10.0000   8.000E-01   1.750E-02   0.000E+00   0.000E+00           T           F   0.000E+00   6.300E-01   0.000E+00   0.000E+00   0.000E+00   0.000E+00   0.000E+00         -           -           -  
   227           9     -0.2887    -16.5000     10.0000   8.000E-01   1.750E-02   0.000E+00   0.000E+00           T           F   0.000E+00   6.300E-01   0.000E+00   0.000E+00   0.000E+00   0.000E+00   0.000E+00         -           -           -  
   228           9      0.5774    -17.0000     10.0000   8.000E-01   1.750E-02   0.000E+00   0.000E+00           T           F   0.000E+00   6.300E-01   0.000E+00   0.000E+00   0.000E+00   0.000E+00   0.000E+00         -           -           -  
   229           9      1.4434    -17.5000     10.0000   8.000E-01   1.750E-02   0.000E+00   0.000E+00           T           F   0.000E+00   6.300E-01   0.000E+00   0.000E+00   0.000E+00   0.000E+00   0.000E+00         -           -           -  
   230           9      2.3094    -18.0000     10.0000   8.000E-01   1.750E-02   0.000E+00   0.000E+00           T           F   0.000E+00   6.300E-01   0.000E+00   0.000E+00   0.000E+00   0.000E+00   0.000E+00         -           -           -  
   231           9      3.1754    -18.5000     10.0000   8.000E-01   1.750E-02   0.000E+00   0.000E+00           T           F   0.000E+00   6.300E-01   0.000E+00   0.000E+00   0.000E+00   0.000E+00   0.000E+00         -           -           -  
   232           9      4.0415    -19.0000     10.0000   8.000E-01   1.750E-02   0.000E+00   0.000E+00           T           F   0.000E+00   6.300E-01   0.000E+00   0.000E+00   0.000E+00   0.000E+00   0.000E+00         -           -           -  
   233           9      4.9075    -19.5000     10.0000   8.000E-01   1.750E-02   0.000E+00   0.000E+00           T           F   0.000E+00   6.300E-01   0.000E+00   0.000E+00   0.000E+00   0.000E+00   0.000E+00         -           -           -  
   234           9      5.7735    -20.0000     10.0000   8.000E-01   1.750E-02   0.000E+00   0.000E+00           T           F   0.000E+00   6.300E-01   0.000E+00   0.000E+00   0.000E+00   0.000E+00   0.000E+00         -           -           -  
   235           9      6.6395    -20.5000     10.0000   8.000E-01   1.750E-02   0.000E+00   0.000E+00           T           F   0.000E+00   6.300E-01   0.000E+00   0.000E+00   0.000E+00   0.000E+00   0.000E+00         -           -           -  
   236           9      7.5056    -21.0000     10.0000   8.000E-01   1.750E-02   0.000E+00   0.000E+00           T           F   0.000E+00   6.300E-01   0.000E+00   0.000E+00   0.000E+00   0.000E+00   0.000E+00         -           -           -  
   237           9      8.3716    -21.5000     10.0000   8.000E-01   1.750E-02   0.000E+00   0.000E+00           T           F   0.000E+00   6.300E-01   0.000E+00   0.000E+00   0.000E+00   0.000E+00   0.000E+00         -           -           -  
   238          10     14.4337    -18.0000     10.0000   8.000E-01   1.750E-02   0.000E+00   0.000E+00           T           F   0.000E+00   6.300E-01   0.000E+00   0.000E+00   0.000E+00   0.000E+00   0.000E+00         -           -           -  
   239          10     14.4337    -17.0000     10.0000   8.000E-01   1.750E-02   0.000E+00   0.000E+00           T           F   0.000E+00   6.300E-01   0.000E+00   0.000E+00   0.000E+00   0.000E+00   0.000E+00         -           -           -  
   240          10     14.4337    -16.0000     10.0000   8.000E-01   1.750E-02   0.000E+00   0.000E+00           T           F   0.000E+00   6.300E-01   0.000E+00   0.000E+00   0.000E+00   0.000E+00   0.000E+00         -           -           -  
   241          10     14.4337    -15.0000     10.0000   8.000E-01   1.750E-02   0.000E+00   0.000E+00           T           F   0.000E+00   6.300E-01   0.000E+00   0.000E+00   0.000E+00   0.000E+00   0.000E+00         -           -           -  
   242          10     14.4337    -14.0000     10.0000   8.000E-01   1.750E-02   0.000E+00   0.000E+00           T           F   0.000E+00   6.300E-01   0.000E+00   0.000E+00   0.000E+00   0.000E+00   0.000E+00         -           -           -  
   243          10     14.4337    -13.0000     10.0000   8.000E-01   1.750E-02   0.000E+00   0.000E+00           T           F   0.000E+00   6.300E-01   0.000E+00   0.000E+00   0.000E+00   0.000E+00   0.000E+00         -           -           -  
   244          10     14.4337    -12.0000     10.0000   8.000E-01   1.750E-02   0.000E+00   0.000E+00           T           F   0.000E+00   6.300E-01   0.000E+00   0.000E+00   0.000E+00   0.000E+00   0.000E+00         -           -           -  
   245          10     14.4337    -11.0000     10.0000   8.000E-01   1.750E-02   0.000E+00   0.000E+00           T           F   0.000E+00   6.300E-01   0.000E+00   0.000E+00   0.000E+00   0.000E+00   0.000E+00         -           -           -  
   246          10     14.4337    -10.0000     10.0000   8.000E-01   1.750E-02   0.000E+00   0.000E+00           T           F   0.000E+00   6.300E-01   0.000E+00   0.000E+00   0.000E+00   0.000E+00   0.000E+00         -           -           -  
   247          10     14.4337     -9.0000     10.0000   8.000E-01   1.750E-02   0.000E+00   0.000E+00           T           F   0.000E+00   6.300E-01   0.000E+00   0.000E+00   0.000E+00   0.000E+00   0.000E+00         -           -           -  
   248          10     14.4337     -8.0000     10.0000   8.000E-01   1.750E-02   0.000E+00   0.000E+00           T           F   0.000E+00   6.300E-01   0.000E+00   0.000E+00   0.000E+00   0.000E+00   0.000E+00         -           -           -  
   249          10     14.4337     -7.0000     10.0000   8.000E-01   1.750E-02   0.000E+00   0.000E+00           T           F   0.000E+00   6.300E-01   0.000E+00   0.000E+00   0.000E+00   0.000E+00   0.000E+00         -           -           -  
   250          10     14.4338     -6.0000     10.0000   8.000E-01   1.750E-02   0.000E+00   0.000E+00           T           F   0.000E+00   6.300E-01   0.000E+00   0.000E+00   0.000E+00   0.000E+00   0.000E+00         -           -           -  
   251          10     14.4337     -5.0000     10.0000   8.000E-01   1.750E-02   0.000E+00   0.000E+00           T           F   0.000E+00   6.300E-01   0.000E+00   0.000E+00   0.000E+00   0.000E+00   0.000E+00         -           -           -  
   252          10     14.4337     -4.0000     10.0000   8.000E-01   1.750E-02   0.000E+00   0.000E+00           T           F   0.000E+00   6.300E-01   0.000E+00   0.000E+00   0.000E+00   0.000E+00   0.000E+00         -           -           -  
   253          10     14.4337     -3.0000     10.0000   8.000E-01   1.750E-02   0.000E+00   0.000E+00           T           F   0.000E+00   6.300E-01   0.000E+00   0.000E+00   0.000E+00   0.000E+00   0.000E+00         -           -           -  
   254          10     14.4337     -2.0000     10.0000   8.000E-01   1.750E-02   0.000E+00   0.000E+00           T           F   0.000E+00   6.300E-01   0.000E+00   0.000E+00   0.000E+00   0.000E+00   0.000E+00         -           -           -  
   255          10     14.4337     -1.0000     10.0000   8.000E-01   1.750E-02   0.000E+00   0.000E+00           T           F   0.000E+00   6.300E-01   0.000E+00   0.000E+00   0.000E+00   0.000E+00   0.000E+00         -           -           -  
   256          10     14.4337      0.0000     10.0000   8.000E-01   1.750E-02   0.000E+00   0.000E+00           T           F   0.000E+00   6.300E-01   0.000E+00   0.000E+00   0.000E+00   0.000E+00   0.000E+00         -           -           -  
   257          10     14.4337      1.0000     10.0000   8.000E-01   1.750E-02   0.000E+00   0.000E+00           T           F   0.000E+00   6.300E-01   0.000E+00   0.000E+00   0.000E+00   0.000E+00   0.000E+00         -           -           -  
   258          10     14.4337      2.0000     10.0000   8.000E-01   1.750E-02   0.000E+00   0.000E+00           T           F   0.000E+00   6.300E-01   0.000E+00   0.000E+00   0.000E+00   0.000E+00   0.000E+00         -           -           -  
   259          10     14.4337      3.0000     10.0000   8.000E-01   1.750E-02   0.000E+00   0.000E+00           T           F   0.000E+00   6.300E-01   0.000E+00   0.000E+00   0.000E+00   0.000E+00   0.000E+00         -           -           -  
   260          10     14.4337      4.0000     10.0000   8.000E-01   1.750E-02   0.000E+00   0.000E+00           T           F   0.000E+00   6.300E-01   0.000E+00   0.000E+00   0.000E+00   0.000E+00   0.000E+00         -           -           -  
   261          10     14.4337      5.0000     10.0000   8.000E-01   1.750E-02   0.000E+00   0.000E+00           T           F   0.000E+00   6.300E-01   0.000E+00   0.000E+00   0.000E+00   0.000E+00   0.000E+00         -           -           -  
   262          10     14.4337      6.0000     10.0000   8.000E-01   1.750E-02   0.000E+00   0.000E+00           T           F   0.000E+00   6.300E-01   0.000E+00   0.000E+00   0.000E+00   0.000E+00   0.000E+00         -           -           -  
   263          10     14.4337      7.0000     10.0000   8.000E-01   1.750E-02   0.000E+00   0.000E+00           T           F   0.000E+00   6.300E-01   0.000E+00   0.000E+00   0.000E+00   0.000E+00   0.000E+00         -           -           -  
   264          10     14.4337      8.0000     10.0000   8.000E-01   1.750E-02   0.000E+00   0.000E+00           T           F   0.000E+00   6.300E-01   0.000E+00   0.000E+00   0.000E+00   0.000E+00   0.000E+00         -           -           -  
   265          10     14.4337      9.0000     10.0000   8.000E-01   1.750E-02   0.000E+00   0.000E+00           T           F   0.000E+00   6.300E-01   0.000E+00   0.000E+00   0.000E+00   0.000E+00   0.000E+00         -           -           -  
   266          10     14.4337     10.0000     10.0000   8.000E-01   1.750E-02   0.000E+00   0.000E+00           T           F   0.000E+00   6.300E-01   0.000E+00   0.000E+00   0.000E+00   0.000E+00   0.000E+00         -           -           -  
   267          10     14.4337     11.0000     10.0000   8.000E-01   1.750E-02   0.000E+00   0.000E+00           T           F   0.000E+00   6.300E-01   0.000E+00   0.000E+00   0.000E+00   0.000E+00   0.000E+00         -           -           -  
   268          10     14.4337     12.0000     10.0000   8.000E-01   1.750E-02   0.000E+00   0.000E+00           T           F   0.000E+00   6.300E-01   0.000E+00   0.000E+00   0.000E+00   0.000E+00   0.000E+00         -           -           -  
   269          10     14.4337     13.0000     10.0000   8.000E-01   1.750E-02   0.000E+00   0.000E+00           T           F   0.000E+00   6.300E-01   0.000E+00   0.000E+00   0.000E+00   0.000E+00   0.000E+00         -           -           -  
   270          10     14.4337     14.0000     10.0000   8.000E-01   1.750E-02   0.000E+00   0.000E+00           T           F   0.000E+00   6.300E-01   0.000E+00   0.000E+00   0.000E+00   0.000E+00   0.000E+00         -           -           -  
   271          10     14.4337     15.0000     10.0000   8.000E-01   1.750E-02   0.000E+00   0.000E+00           T           F   0.000E+00   6.300E-01   0.000E+00   0.000E+00   0.000E+00   0.000E+00   0.000E+00         -           -           -  
   272          10     14.4337     16.0000     10.0000   8.000E-01   1.750E-02   0.000E+00   0.000E+00           T           F   0.000E+00   6.300E-01   0.000E+00   0.000E+00   0.000E+00   0.000E+00   0.000E+00         -           -           -  
   273          10     14.4337     17.0000     10.0000   8.000E-01   1.750E-02   0.000E+00   0.000E+00           T           F   0.000E+00   6.300E-01   0.000E+00   0.000E+00   0.000E+00   0.000E+00   0.000E+00         -           -           -  
   274          10     14.4337     18.0000     10.0000   8.000E-01   1.750E-02   0.000E+00   0.000E+00           T           F   0.000E+00   6.300E-01   0.000E+00   0.000E+00   0.000E+00   0.000E+00   0.000E+00         -           -           -  
   275          11      3.1754     18.5000    -17.0000   8.000E-01   1.750E-02   0.000E+00   0.000E+00           T           F   0.000E+00   6.300E-01   0.000E+00   0.000E+00   0.000E+00   0.000E+00   0.000E+00         -           -           -  
   276          11      2.3094     18.0000    -17.0000   8.000E-01   1.750E-02   0.000E+00   0.000E+00           T           F   0.000E+00   6.300E-01   0.000E+00   0.000E+00   0.000E+00   0.000E+00   0.000E+00         -           -           -  
   277          11      1.4434     17.5000    -17.0000   8.000E-01   1.750E-02   0.000E+00   0.000E+00           T           F   0.000E+00   6.300E-01   0.000E+00   0.000E+00   0.000E+00   0.000E+00   0.000E+00         -           -           -  
   278          11      0.5773     17.0000    -17.0000   8.000E-01   1.750E-02   0.000E+00   0.000E+00           T           F   0.000E+00   6.300E-01   0.000E+00   0.000E+00   0.000E+00   0.000E+00   0.000E+00         -           -           -  
   279          11     -0.2887     16.5000    -17.0000   8.000E-01   1.750E-02   0.000E+00   0.000E+00           T           F   0.000E+00   6.300E-01   0.000E+00   0.000E+00   0.000E+00   0.000E+00   0.000E+00         -           -           -  
   280          11     -1.1547     16.0000    -17.0000   8.000E-01   1.750E-02   0.000E+00   0.000E+00           T           F   0.000E+00   6.300E-01   0.000E+00   0.000E+00   0.000E+00   0.000E+00   0.000E+00         -           -           -  
   281          11     -2.0207     15.5000    -17.0000   8.000E-01   1.750E-02   0.000E+00   0.000E+00           T           F   0.000E+00   6.300E-01   0.000E+00   0.000E+00   0.000E+00   0.000E+00   0.000E+00         -           -           -  
   282          11     -2.8868     15.0000    -17.0000   8.000E-01   1.750E-02   0.000E+00   0.000E+00           T           F   0.000E+00   6.300E-01   0.000E+00   0.000E+00   0.000E+00   0.000E+00   0.000E+00         -           -           -  
   283          11     -3.7528     14.5000    -17.0000   8.000E-01   1.750E-02   0.000E+00   0.000E+00           T           F   0.000E+00   6.300E-01   0.000E+00   0.000E+00   0.000E+00   0.000E+00   0.000E+00         -           -           -  
   284          11     -4.6188     14.0000    -17.0000   8.000E-01   1.750E-02   0.000E+00   0.000E+00           T           F   0.000E+00   6.300E-01   0.000E+00   0.000E+00   0.000E+00   0.000E+00   0.000E+00         -           -           -  
   285          11     -5.4848     13.5000    -17.0000   8.000E-01   1.750E-02   0.000E+00   0.000E+00           T           F   0.000E+00   6.300E-01   0.000E+00   0.000E+00   0.000E+00   0.000E+00   0.000E+00         -           -           -  
   286          11     -6.3509     13.0000    -17.0000   8.000E-01   1.750E-02   0.000E+00   0.000E+00           T           F   0.000E+00   6.300E-01   0.000E+00   0.000E+00   0.000E+00   0.000E+00   0.000E+00         -           -           -  
   287          11     -7.2169     12.5000    -17.0000   8.000E-01   1.750E-02   0.000E+00   0.000E+00           T           F   0.000E+00   6.300E-01   0.000E+00   0.000E+00   0.000E+00   0.000E+00   0.000E+00         -           -           -  
   288          11     -8.0829     12.0000    -17.0000   8.000E-01   1.750E-02   0.000E+00   0.000E+00           T           F   0.000E+00   6.300E-01   0.000E+00   0.000E+00   0.000E+00   0.000E+00   0.000E+00         -           -           -  
   289          11     -8.9489     11.5000    -17.0000   8.000E-01   1.750E-02   0.000E+00   0.000E+00           T           F   0.000E+00   6.300E-01   0.000E+00   0.000E+00   0.000E+00   0.000E+00   0.000E+00         -           -           -  
   290          11     -9.8150     11.0000    -17.0000   8.000E-01   1.750E-02   0.000E+00   0.000E+00           T           F   0.000E+00   6.300E-01   0.000E+00   0.000E+00   0.000E+00   0.000E+00   0.000E+00         -           -           -  
   291          11    -10.6810     10.5000    -17.0000   8.000E-01   1.750E-02   0.000E+00   0.000E+00           T           F   0.000E+00   6.300E-01   0.000E+00   0.000E+00   0.000E+00   0.000E+00   0.000E+00         -           -           -  
   292          11    -11.5470     10.0000    -17.0000   8.000E-01   1.750E-02   0.000E+00   0.000E+00           T           F   0.000E+00   6.300E-01   0.000E+00   0.000E+00   0.000E+00   0.000E+00   0.000E+00         -           -           -  
   293          11    -12.4130      9.5000    -17.0000   8.000E-01   1.750E-02   0.000E+00   0.000E+00           T           F   0.000E+00   6.300E-01   0.000E+00   0.000E+00   0.000E+00   0.000E+00   0.000E+00         -           -           -  
   294          11    -13.2791      9.0000    -17.0000   8.000E-01   1.750E-02   0.000E+00   0.000E+00           T           F   0.000E+00   6.300E-01   0.000E+00   0.000E+00   0.000E+00   0.000E+00   0.000E+00         -           -           -  
   295          11    -14.1451      8.5000    -17.0000   8.000E-01   1.750E-02   0.000E+00   0.000E+00           T           F   0.000E+00   6.300E-01   0.000E+00   0.000E+00   0.000E+00   0.000E+00   0.000E+00         -           -           -  
   296          11    -15.0111      8.0000    -17.0000   8.000E-01   1.750E-02   0.000E+00   0.000E+00           T           F   0.000E+00   6.300E-01   0.000E+00   0.000E+00   0.000E+00   0.000E+00   0.000E+00         -           -           -  
   297          11    -15.8771      7.5000    -17.0000   8.000E-01   1.750E-02   0.000E+00   0.000E+00           T           F   0.000E+00   6.300E-01   0.000E+00   0.000E+00   0.000E+00   0.000E+00   0.000E+00         -           -           -  
   298          11    -16.7431      7.0000    -17.0000   8.000E-01   1.750E-02   0.000E+00   0.000E+00           T           F   0.000E+00   6.300E-01   0.000E+00   0.000E+00   0.000E+00   0.000E+00   0.000E+00         -           -           -  
   299          11    -17.6092      6.5000    -17.0000   8.000E-01   1.750E-02   0.000E+00   0.000E+00           T           F   0.000E+00   6.300E-01   0.000E+00   0.000E+00   0.000E+00   0.000E+00   0.000E+00         -           -           -  
   300          12    -17.6092     -6.5000    -17.0000   8.000E-01   1.750E-02   0.000E+00   0.000E+00           T           F   0.000E+00   6.300E-01   0.000E+00   0.000E+00   0.000E+00   0.000E+00   0.000E+00         -           -           -  
   301          12    -16.7431     -7.0000    -17.0000   8.000E-01   1.750E-02   0.000E+00   0.000E+00           T           F   0.000E+00   6.300E-01   0.000E+00   0.000E+00   0.000E+00   0.000E+00   0.000E+00         -           -           -  
   302          12    -15.8771     -7.5000    -17.0000   8.000E-01   1.750E-02   0.000E+00   0.000E+00           T           F   0.000E+00   6.300E-01   0.000E+00   0.000E+00   0.000E+00   0.000E+00   0.000E+00         -           -           -  
   303          12    -15.0111     -8.0000    -17.0000   8.000E-01   1.750E-02   0.000E+00   0.000E+00           T           F   0.000E+00   6.300E-01   0.000E+00   0.000E+00   0.000E+00   0.000E+00   0.000E+00         -           -           -  
   304          12    -14.1451     -8.5000    -17.0000   8.000E-01   1.750E-02   0.000E+00   0.000E+00           T           F   0.000E+00   6.300E-01   0.000E+00   0.000E+00   0.000E+00   0.000E+00   0.000E+00         -           -           -  
   305          12    -13.2790     -9.0000    -17.0000   8.000E-01   1.750E-02   0.000E+00   0.000E+00           T           F   0.000E+00   6.300E-01   0.000E+00   0.000E+00   0.000E+00   0.000E+00   0.000E+00         -           -           -  
   306          12    -12.4130     -9.5000    -17.0000   8.000E-01   1.750E-02   0.000E+00   0.000E+00           T           F   0.000E+00   6.300E-01   0.000E+00   0.000E+00   0.000E+00   0.000E+00   0.000E+00         -           -           -  
   307          12    -11.5470    -10.0000    -17.0000   8.000E-01   1.750E-02   0.000E+00   0.000E+00           T           F   0.000E+00   6.300E-01   0.000E+00   0.000E+00   0.000E+00   0.000E+00   0.000E+00         -           -           -  
   308          12    -10.6810    -10.5000    -17.0000   8.000E-01   1.750E-02   0.000E+00   0.000E+00           T           F   0.000E+00   6.300E-01   0.000E+00   0.000E+00   0.000E+00   0.000E+00   0.000E+00         -           -           -  
   309          12     -9.8150    -11.0000    -17.0000   8.000E-01   1.750E-02   0.000E+00   0.000E+00           T           F   0.000E+00   6.300E-01   0.000E+00   0.000E+00   0.000E+00   0.000E+00   0.000E+00         -           -           -  
[...]
       4772   0.59650E+02       3.97493E+03       0.00000E+00       2.04075E+01       0.00000E+00      -4.30430E+04       0.00000E+00       0.00000E+00       3.98037E+03       0.00000E+00       4.29986E+04       0.00000E+00      -3.08492E+01       1.29263E+01       0.00000E+00      -2.04988E+03       0.00000E+00      -6.70062E+01       0.00000E+00       0.00000E+00       4.32026E+04       0.00000E+00       3.34029E+05       0.00000E+00       3.12783E+01      -4.26129E+04       0.00000E+00       5.36142E+01       0.00000E+00       3.32609E+05       0.00000E+00       0.00000E+00      -4.41418E+02       0.00000E+00      -4.14032E+02       0.00000E+00       8.45524E+05
       4773   0.59663E+02       3.76296E+03       0.00000E+00       1.70498E+01       0.00000E+00      -4.35011E+04       0.00000E+00       0.00000E+00       3.76504E+03       0.00000E+00       4.34679E+04       0.00000E+00      -3.77159E+01       1.32646E+01       0.00000E+00      -2.07563E+03       0.00000E+00      -6.80767E+01       0.00000E+00       0.00000E+00       4.36219E+04       0.00000E+00       3.35849E+05       0.00000E+00       1.57373E+01      -4.30229E+04       0.00000E+00       3.77538E+01       0.00000E+00       3.33287E+05       0.00000E+00       0.00000E+00      -4.37528E+02       0.00000E+00      -3.62729E+02       0.00000E+00       8.11287E+05
       4774   0.59675E+02       3.53024E+03       0.00000E+00       1.36117E+01       0.00000E+00      -4.38460E+04       0.00000E+00       0.00000E+00       3.53387E+03       0.00000E+00       4.38204E+04       0.00000E+00      -4.45570E+01       1.35904E+01       0.00000E+00      -2.10212E+03       0.00000E+00      -6.91240E+01       0.00000E+00       0.00000E+00       4.39450E+04       0.00000E+00       3.36391E+05       0.00000E+00       2.65833E-01      -4.33374E+04       0.00000E+00       2.19000E+01       0.00000E+00       3.34944E+05       0.00000E+00       0.00000E+00      -4.33392E+02       0.00000E+00      -3.11401E+02       0.00000E+00       7.53336E+05
       4775   0.59688E+02       3.31812E+03       0.00000E+00       1.01066E+01       0.00000E+00      -4.42811E+04       0.00000E+00       0.00000E+00       3.31839E+03       0.00000E+00       4.42670E+04       0.00000E+00      -5.13478E+01       1.39050E+01       0.00000E+00      -2.12628E+03       0.00000E+00      -7.01474E+01       0.00000E+00       0.00000E+00       4.43426E+04       0.00000E+00       3.38118E+05       0.00000E+00      -1.51198E+01      -4.37242E+04       0.00000E+00       6.11307E+00       0.00000E+00       3.35491E+05       0.00000E+00       0.00000E+00      -4.29068E+02       0.00000E+00      -2.60212E+02       0.00000E+00       7.16632E+05
       4776   0.59700E+02       3.08693E+03       0.00000E+00       6.55662E+00       0.00000E+00      -4.46020E+04       0.00000E+00       0.00000E+00       3.08875E+03       0.00000E+00       4.45969E+04       0.00000E+00      -5.80715E+01       1.42070E+01       0.00000E+00      -2.15112E+03       0.00000E+00      -7.11449E+01       0.00000E+00       0.00000E+00       4.46430E+04       0.00000E+00       3.38548E+05       0.00000E+00      -3.03402E+01      -4.40158E+04       0.00000E+00      -9.56216E+00       0.00000E+00       3.37033E+05       0.00000E+00       0.00000E+00      -4.24565E+02       0.00000E+00      -2.09351E+02       0.00000E+00       6.56889E+05
       4777   0.59713E+02       2.87768E+03       0.00000E+00       2.97558E+00       0.00000E+00      -4.50125E+04       0.00000E+00       0.00000E+00       2.87621E+03       0.00000E+00       4.50175E+04       0.00000E+00      -6.47038E+01       1.44976E+01       0.00000E+00      -2.17362E+03       0.00000E+00      -7.21157E+01       0.00000E+00       0.00000E+00       4.50161E+04       0.00000E+00       3.40166E+05       0.00000E+00      -4.53804E+01      -4.43796E+04       0.00000E+00      -2.50661E+01       0.00000E+00       3.37486E+05       0.00000E+00       0.00000E+00      -4.19942E+02       0.00000E+00      -1.58976E+02       0.00000E+00       6.18376E+05
       4778   0.59725E+02       2.65088E+03       0.00000E+00      -6.14238E-01       0.00000E+00      -4.53086E+04       0.00000E+00       0.00000E+00       2.65109E+03       0.00000E+00       4.53205E+04       0.00000E+00      -7.12282E+01       1.47754E+01       0.00000E+00      -2.19675E+03       0.00000E+00      -7.30576E+01       0.00000E+00       0.00000E+00       4.52924E+04       0.00000E+00       3.40487E+05       0.00000E+00      -6.01614E+01      -4.46481E+04       0.00000E+00      -4.03546E+01       0.00000E+00       3.38917E+05       0.00000E+00       0.00000E+00      -4.15208E+02       0.00000E+00      -1.09276E+02       0.00000E+00       5.57602E+05
       4779   0.59738E+02       2.44784E+03       0.00000E+00      -4.19895E+00       0.00000E+00      -4.56925E+04       0.00000E+00       0.00000E+00       2.44470E+03       0.00000E+00       4.57160E+04       0.00000E+00      -7.76209E+01       1.50418E+01       0.00000E+00      -2.21752E+03       0.00000E+00      -7.39701E+01       0.00000E+00       0.00000E+00       4.56400E+04       0.00000E+00       3.42009E+05       0.00000E+00      -7.46692E+01      -4.49870E+04       0.00000E+00      -5.53695E+01       0.00000E+00       3.39270E+05       0.00000E+00       0.00000E+00      -4.10420E+02       0.00000E+00      -6.04055E+01       0.00000E+00       5.18720E+05
       4780   0.59750E+02       2.22891E+03       0.00000E+00      -7.75647E+00       0.00000E+00      -4.59605E+04       0.00000E+00       0.00000E+00       2.22699E+03       0.00000E+00       4.59930E+04       0.00000E+00      -8.38660E+01       1.52952E+01       0.00000E+00      -2.23891E+03       0.00000E+00      -7.48508E+01       0.00000E+00       0.00000E+00       4.58897E+04       0.00000E+00       3.42234E+05       0.00000E+00      -8.88268E+01      -4.52309E+04       0.00000E+00      -7.00679E+01       0.00000E+00       3.40596E+05       0.00000E+00       0.00000E+00      -4.05587E+02       0.00000E+00      -1.25472E+01       0.00000E+00       4.57878E+05
       4781   0.59763E+02       2.03475E+03       0.00000E+00      -1.12732E+01       0.00000E+00      -4.63188E+04       0.00000E+00       0.00000E+00       2.03000E+03       0.00000E+00       4.63600E+04       0.00000E+00      -8.99406E+01       1.55371E+01       0.00000E+00      -2.25786E+03       0.00000E+00      -7.56993E+01       0.00000E+00       0.00000E+00       4.62132E+04       0.00000E+00       3.43652E+05       0.00000E+00      -1.02622E+02      -4.55449E+04       0.00000E+00      -8.43936E+01       0.00000E+00       3.40865E+05       0.00000E+00       0.00000E+00      -4.00767E+02       0.00000E+00       3.41498E+01       0.00000E+00       4.19836E+05
       4782   0.59775E+02       1.82603E+03       0.00000E+00      -1.47276E+01       0.00000E+00      -4.65596E+04       0.00000E+00       0.00000E+00       1.82293E+03       0.00000E+00       4.66074E+04       0.00000E+00      -9.58297E+01       1.57660E+01       0.00000E+00      -2.27741E+03       0.00000E+00      -7.65134E+01       0.00000E+00       0.00000E+00       4.64367E+04       0.00000E+00       3.43791E+05       0.00000E+00      -1.15979E+02      -4.57634E+04       0.00000E+00      -9.83061E+01       0.00000E+00       3.42098E+05       0.00000E+00       0.00000E+00      -3.95966E+02       0.00000E+00       7.95113E+01       0.00000E+00       3.60120E+05
       4783   0.59788E+02       1.64419E+03       0.00000E+00      -1.81067E+01       0.00000E+00      -4.68893E+04       0.00000E+00       0.00000E+00       1.63795E+03       0.00000E+00       4.69473E+04       0.00000E+00      -1.01511E+02       1.59833E+01       0.00000E+00      -2.29452E+03       0.00000E+00      -7.72924E+01       0.00000E+00       0.00000E+00       4.67338E+04       0.00000E+00       3.45100E+05       0.00000E+00      -1.28889E+02      -4.60516E+04       0.00000E+00      -1.11752E+02       0.00000E+00       3.42272E+05       0.00000E+00       0.00000E+00      -3.91240E+02       0.00000E+00       1.23395E+02       0.00000E+00       3.23856E+05
       4784   0.59800E+02       1.44896E+03       0.00000E+00      -2.13897E+01       0.00000E+00      -4.70997E+04       0.00000E+00       0.00000E+00       1.44427E+03       0.00000E+00       4.71646E+04       0.00000E+00      -1.06972E+02       1.61876E+01       0.00000E+00      -2.31220E+03       0.00000E+00      -7.80343E+01       0.00000E+00       0.00000E+00       4.69316E+04       0.00000E+00       3.45129E+05       0.00000E+00      -1.41280E+02      -4.62438E+04       0.00000E+00      -1.24693E+02       0.00000E+00       3.43422E+05       0.00000E+00       0.00000E+00      -3.86594E+02       0.00000E+00       1.65637E+02       0.00000E+00       2.66404E+05
       4785   0.59812E+02       1.28173E+03       0.00000E+00      -2.45646E+01       0.00000E+00      -4.74016E+04       0.00000E+00       0.00000E+00       1.27411E+03       0.00000E+00       4.74751E+04       0.00000E+00      -1.12190E+02       1.63802E+01       0.00000E+00      -2.32739E+03       0.00000E+00      -7.87387E+01       0.00000E+00       0.00000E+00       4.72002E+04       0.00000E+00       3.46367E+05       0.00000E+00      -1.53143E+02      -4.65056E+04       0.00000E+00      -1.37078E+02       0.00000E+00       3.43494E+05       0.00000E+00       0.00000E+00      -3.82084E+02       0.00000E+00       2.06107E+02       0.00000E+00       2.32776E+05
       4786   0.59825E+02       1.10240E+03       0.00000E+00      -2.76118E+01       0.00000E+00      -4.75836E+04       0.00000E+00       0.00000E+00       1.09653E+03       0.00000E+00       4.76638E+04       0.00000E+00      -1.17154E+02       1.65597E+01       0.00000E+00      -2.34312E+03       0.00000E+00      -7.94035E+01       0.00000E+00       0.00000E+00       4.73694E+04       0.00000E+00       3.46303E+05       0.00000E+00      -1.64411E+02      -4.66697E+04       0.00000E+00      -1.48875E+02       0.00000E+00       3.44542E+05       0.00000E+00       0.00000E+00      -3.77711E+02       0.00000E+00       2.44651E+02       0.00000E+00       1.78476E+05
       4787   0.59838E+02       9.52483E+02       0.00000E+00      -3.05204E+01       0.00000E+00      -4.78544E+04       0.00000E+00       0.00000E+00       9.43637E+02       0.00000E+00       4.79419E+04       0.00000E+00      -1.21845E+02       1.67276E+01       0.00000E+00      -2.35637E+03       0.00000E+00      -8.00283E+01       0.00000E+00       0.00000E+00       4.76115E+04       0.00000E+00       3.47458E+05       0.00000E+00      -1.75079E+02      -4.69060E+04       0.00000E+00      -1.60036E+02       0.00000E+00       3.44546E+05       0.00000E+00       0.00000E+00      -3.73527E+02       0.00000E+00       2.81152E+02       0.00000E+00       1.48525E+05
       4788   0.59850E+02       7.91467E+02       0.00000E+00      -3.32722E+01       0.00000E+00      -4.80068E+04       0.00000E+00       0.00000E+00       7.84640E+02       0.00000E+00       4.80981E+04       0.00000E+00      -1.26251E+02       1.68824E+01       0.00000E+00      -2.37013E+03       0.00000E+00      -8.06112E+01       0.00000E+00       0.00000E+00       4.77525E+04       0.00000E+00       3.47314E+05       0.00000E+00      -1.85082E+02      -4.70443E+04       0.00000E+00      -1.70531E+02       0.00000E+00       3.45525E+05       0.00000E+00       0.00000E+00      -3.69534E+02       0.00000E+00       3.15469E+02       0.00000E+00       9.83040E+04
       4789   0.59863E+02       6.61127E+02       0.00000E+00      -3.58578E+01       0.00000E+00      -4.82455E+04       0.00000E+00       0.00000E+00       6.51173E+02       0.00000E+00       4.83456E+04       0.00000E+00      -1.30356E+02       1.70254E+01       0.00000E+00      -2.38137E+03       0.00000E+00      -8.11520E+01       0.00000E+00       0.00000E+00       4.79661E+04       0.00000E+00       3.48378E+05       0.00000E+00      -1.94422E+02      -4.72512E+04       0.00000E+00      -1.80317E+02       0.00000E+00       3.45432E+05       0.00000E+00       0.00000E+00      -3.65779E+02       0.00000E+00       3.47500E+02       0.00000E+00       7.28361E+04
       4790   0.59875E+02       5.20960E+02       0.00000E+00      -3.82606E+01       0.00000E+00      -4.83652E+04       0.00000E+00       0.00000E+00       5.12640E+02       0.00000E+00       4.84702E+04       0.00000E+00      -1.34149E+02       1.71554E+01       0.00000E+00      -2.39311E+03       0.00000E+00      -8.16488E+01       0.00000E+00       0.00000E+00       4.80794E+04       0.00000E+00       3.48160E+05       0.00000E+00      -2.03035E+02      -4.73617E+04       0.00000E+00      -1.89370E+02       0.00000E+00       3.46330E+05       0.00000E+00       0.00000E+00      -3.62261E+02       0.00000E+00       3.77120E+02       0.00000E+00       2.77436E+04
       4791   0.59888E+02       4.11732E+02       0.00000E+00      -4.04732E+01       0.00000E+00      -4.85735E+04       0.00000E+00       0.00000E+00       4.00885E+02       0.00000E+00       4.86845E+04       0.00000E+00      -1.37617E+02       1.72736E+01       0.00000E+00      -2.40233E+03       0.00000E+00      -8.21016E+01       0.00000E+00       0.00000E+00       4.82631E+04       0.00000E+00       3.49136E+05       0.00000E+00      -2.10928E+02      -4.75406E+04       0.00000E+00      -1.97651E+02       0.00000E+00       3.46161E+05       0.00000E+00       0.00000E+00      -3.59025E+02       0.00000E+00       4.04243E+02       0.00000E+00       7.26677E+03
       4792   0.59900E+02       2.93653E+02       0.00000E+00      -4.24805E+01       0.00000E+00      -4.86613E+04       0.00000E+00       0.00000E+00       2.84800E+02       0.00000E+00       4.87757E+04       0.00000E+00      -1.40750E+02       1.73787E+01       0.00000E+00      -2.41201E+03       0.00000E+00      -8.25087E+01       0.00000E+00       0.00000E+00       4.83490E+04       0.00000E+00       3.48815E+05       0.00000E+00      -2.18043E+02      -4.76237E+04       0.00000E+00      -2.05140E+02       0.00000E+00       3.46999E+05       0.00000E+00       0.00000E+00      -3.56064E+02       0.00000E+00       4.28759E+02       0.00000E+00      -3.23311E+04
       4793   0.59913E+02       2.07833E+02       0.00000E+00      -4.42770E+01       0.00000E+00      -4.88375E+04       0.00000E+00       0.00000E+00       1.96265E+02       0.00000E+00       4.89574E+04       0.00000E+00      -1.43537E+02       1.74721E+01       0.00000E+00      -2.41918E+03       0.00000E+00      -8.28702E+01       0.00000E+00       0.00000E+00       4.85019E+04       0.00000E+00       3.49735E+05       0.00000E+00      -2.24390E+02      -4.77731E+04       0.00000E+00      -2.11805E+02       0.00000E+00       3.46737E+05       0.00000E+00       0.00000E+00      -3.53423E+02       0.00000E+00       4.50600E+02       0.00000E+00      -4.68363E+04
       4794   0.59925E+02       1.13707E+02       0.00000E+00      -4.58500E+01       0.00000E+00      -4.88934E+04       0.00000E+00       0.00000E+00       1.04107E+02       0.00000E+00       4.90146E+04       0.00000E+00      -1.45972E+02       1.75525E+01       0.00000E+00      -2.42679E+03       0.00000E+00      -8.31844E+01       0.00000E+00       0.00000E+00       4.85564E+04       0.00000E+00       3.49348E+05       0.00000E+00      -2.29916E+02      -4.78251E+04       0.00000E+00      -2.17630E+02       0.00000E+00       3.47464E+05       0.00000E+00       0.00000E+00      -3.51090E+02       0.00000E+00       4.69676E+02       0.00000E+00      -8.06093E+04
       4795   0.59938E+02       5.23617E+01       0.00000E+00      -4.71960E+01       0.00000E+00      -4.90363E+04       0.00000E+00       0.00000E+00       4.02000E+01       0.00000E+00       4.91629E+04       0.00000E+00      -1.48044E+02       1.76210E+01       0.00000E+00      -2.43185E+03       0.00000E+00      -8.34518E+01       0.00000E+00       0.00000E+00       4.86814E+04       0.00000E+00       3.50180E+05       0.00000E+00      -2.34638E+02      -4.79478E+04       0.00000E+00      -2.22589E+02       0.00000E+00       3.47165E+05       0.00000E+00       0.00000E+00      -3.49104E+02       0.00000E+00       4.85937E+02       0.00000E+00      -8.83996E+04
       4796   0.59950E+02      -1.67467E+01       0.00000E+00      -4.83043E+01       0.00000E+00      -4.90590E+04       0.00000E+00       0.00000E+00      -2.66667E+01       0.00000E+00       4.91878E+04       0.00000E+00      -1.49749E+02       1.76765E+01       0.00000E+00      -2.43737E+03       0.00000E+00      -8.36709E+01       0.00000E+00       0.00000E+00       4.87074E+04       0.00000E+00       3.49730E+05       0.00000E+00      -2.38506E+02      -4.79718E+04       0.00000E+00      -2.26673E+02       0.00000E+00       3.47846E+05       0.00000E+00       0.00000E+00      -3.47453E+02       0.00000E+00       4.99310E+02       0.00000E+00      -1.15125E+05
       4797   0.59963E+02      -5.25275E+01       0.00000E+00      -4.91737E+01       0.00000E+00      -4.91693E+04       0.00000E+00       0.00000E+00      -6.50725E+01       0.00000E+00       4.93005E+04       0.00000E+00      -1.51080E+02       1.77203E+01       0.00000E+00      -2.44033E+03       0.00000E+00      -8.38420E+01       0.00000E+00       0.00000E+00       4.88015E+04       0.00000E+00       3.50473E+05       0.00000E+00      -2.41542E+02      -4.80648E+04       0.00000E+00      -2.29861E+02       0.00000E+00       3.47449E+05       0.00000E+00       0.00000E+00      -3.46169E+02       0.00000E+00       5.09767E+02       0.00000E+00      -1.16577E+05
       4798   0.59975E+02      -9.54667E+01       0.00000E+00      -4.97959E+01       0.00000E+00      -4.91597E+04       0.00000E+00       0.00000E+00      -1.05813E+02       0.00000E+00       4.92902E+04       0.00000E+00      -1.52034E+02       1.77510E+01       0.00000E+00      -2.44373E+03       0.00000E+00      -8.39642E+01       0.00000E+00       0.00000E+00       4.87970E+04       0.00000E+00       3.49949E+05       0.00000E+00      -2.43703E+02      -4.80597E+04       0.00000E+00      -2.32148E+02       0.00000E+00       3.48064E+05       0.00000E+00       0.00000E+00      -3.45237E+02       0.00000E+00       5.17255E+02       0.00000E+00      -1.36533E+05
       4799   0.59988E+02      -1.05332E+02       0.00000E+00      -5.01722E+01       0.00000E+00      -4.92359E+04       0.00000E+00       0.00000E+00      -1.18082E+02       0.00000E+00       4.93694E+04       0.00000E+00      -1.52607E+02       1.77699E+01       0.00000E+00      -2.44457E+03       0.00000E+00      -8.40379E+01       0.00000E+00       0.00000E+00       4.88615E+04       0.00000E+00       3.50620E+05       0.00000E+00      -2.45016E+02      -4.81233E+04       0.00000E+00      -2.33521E+02       0.00000E+00       3.47590E+05       0.00000E+00       0.00000E+00      -3.44685E+02       0.00000E+00       5.21765E+02       0.00000E+00      -1.30822E+05
       4800   0.60000E+02      -1.22240E+02       0.00000E+00      -5.02964E+01       0.00000E+00      -4.91921E+04       0.00000E+00       0.00000E+00      -1.32480E+02       0.00000E+00       4.93227E+04       0.00000E+00      -1.52799E+02       1.77758E+01       0.00000E+00      -2.44587E+03       0.00000E+00      -8.40623E+01       0.00000E+00       0.00000E+00       4.88260E+04       0.00000E+00       3.50003E+05       0.00000E+00      -2.45444E+02      -4.80887E+04       0.00000E+00      -2.33981E+02       0.00000E+00       3.48119E+05       0.00000E+00       0.00000E+00      -3.44492E+02       0.00000E+00       5.23265E+02       0.00000E+00      -1.43742E+05

This summary file was closed on 23-Dec-2021 at 16:15:53.

