
 **************************************************************************************************
 OpenFAST

 Copyright (C) 2020 National Renewable Energy Laboratory
 Copyright (C) 2020 Envision Energy USA LTD

 This program is licensed under Apache License Version 2.0 and comes with ABSOLUTELY NO WARRANTY.
 See the "LICENSE" file distributed with this software for details.
 **************************************************************************************************

 OpenFAST-v2.4.0-50-g416ff436
 Compile Info:
  - Compiler: GCC version 7.4.0
  - Architecture: 64 bit
  - Precision: double
  - Date: Nov  6 2020
  - Time: 12:35:02
 Execution Info:
  - Date: 11/06/2020
  - Time: 12:35:37-0700

 OpenFAST input file heading:
     FAST Certification Test #03: AWT-27CR2 with many DOFs with free yaw and steady wind.

 Running ElastoDyn.
 Nodal outputs section of ElastoDyn input file not found or improperly formatted.
 Running AeroDyn.
 Nodal output section of AeroDyn input file not found or improperly formatted.
 Running InflowWind.
 Running ServoDyn.
  Time: 0 of 20 seconds.
 Warning: Turning off Unsteady Aerodynamics due to high angle of attack (66.465 deg). (node 1,
 blade 1)
 Warning: Turning off Unsteady Aerodynamics due to high angle of attack (52.101 deg). (node 2,
 blade 1)
 Warning: Turning off Unsteady Aerodynamics due to high angle of attack (45.13 deg). (node 1,
 blade 2)
 Warning: Turning off Unsteady Aerodynamics due to high angle of attack (45.102 deg). (node 2,
 blade 2)
                                                                                                   Time: 1 of 20 seconds.  Estimated final completion at 12:36:09.                                                                                                                                     Time: 2 of 20 seconds.  Estimated final completion at 12:36:12.                                                                                                                                     Time: 3 of 20 seconds.  Estimated final completion at 12:36:13.                                                                                                                                     Time: 4 of 20 seconds.  Estimated final completion at 12:36:14.                                                                                                                                     Time: 5 of 20 seconds.  Estimated final completion at 12:36:17.                                                                                                                                     Time: 6 of 20 seconds.  Estimated final completion at 12:36:16.                                                                                                                                     Time: 7 of 20 seconds.  Estimated final completion at 12:36:16.                                                                                                                                     Time: 8 of 20 seconds.  Estimated final completion at 12:36:15.                                                                                                                                     Time: 9 of 20 seconds.  Estimated final completion at 12:36:16.                                                                                                                                     Time: 10 of 20 seconds.  Estimated final completion at 12:36:17.                                                                                                                                    Time: 11 of 20 seconds.  Estimated final completion at 12:36:16.                                                                                                                                    Time: 12 of 20 seconds.  Estimated final completion at 12:36:16.                                                                                                                                    Time: 13 of 20 seconds.  Estimated final completion at 12:36:16.                                                                                                                                    Time: 14 of 20 seconds.  Estimated final completion at 12:36:16.                                                                                                                                    Time: 15 of 20 seconds.  Estimated final completion at 12:36:16.                                                                                                                                    Time: 16 of 20 seconds.  Estimated final completion at 12:36:16.                                                                                                                                    Time: 17 of 20 seconds.  Estimated final completion at 12:36:16.                                                                                                                                    Time: 18 of 20 seconds.  Estimated final completion at 12:36:17.                                                                                                                                    Time: 19 of 20 seconds.  Estimated final completion at 12:36:17.                                                                                                                                    Time: 20 of 20 seconds.  Estimated final completion at 12:36:17.                                                                                                                                   
  Total Real Time:       39.029 seconds
  Total CPU Time:        35.862 seconds
  Simulation CPU Time:   35.827 seconds
  Simulated Time:        20 seconds
  Time Ratio (Sim/CPU):  0.55824

  OpenFAST terminated normally.

