
 **************************************************************************************************
 OpenFAST

 Copyright (C) 2022 National Renewable Energy Laboratory
 Copyright (C) 2022 Envision Energy USA LTD

 This program is licensed under Apache License Version 2.0 and comes with ABSOLUTELY NO WARRANTY.
 See the "LICENSE" file distributed with this software for details.
 **************************************************************************************************

 OpenFAST-v3.1.0-243-ge6028eae
 Compile Info:
  - Compiler: GCC version 10.4.0
  - Architecture: 64 bit
  - Precision: double
  - OpenMP: No
  - Date: Jul  6 2022
  - Time: 19:16:34
 Execution Info:
  - Date: 07/06/2022
  - Time: 19:41:09-0500

 OpenFAST input file heading:
     FAST Certification Test #17: SWRT 3-bladed upwind turbine with many DOFs, variable speed
     control, free yaw, tail-furl, FF turbulence

 Running ElastoDyn.
 Nodal outputs section of ElastoDyn input file not found or improperly formatted.
 Running AeroDyn14.
  WARNING:   AeroDyn 14 is deprecated and will be removed in a future release.
 Running InflowWind.

    Reading a 6x6 grid (8 m wide, 30.619 m to 38.619 m above ground) with a characteristic wind
    speed of 16 m/s.

    Processed 1410 time steps of 20-Hz full-field data (70.45 seconds).
 Running ServoDyn.
  Time: 0 of 70 seconds.

  Using variable speed generator option.
    RPM and Torque (Nm) for SWRT rotor mod by CH Aug 9, 2004 with new test data.  See Config B
    Torque vs RPM.xls

                                                                                                   Time: 1 of 70 seconds.  Estimated final completion at 19:45:04.                                                                                                                                     Time: 2 of 70 seconds.  Estimated final completion at 19:45:04.                                                                                                                                     Time: 3 of 70 seconds.  Estimated final completion at 19:45:04.                                                                                                                                     Time: 4 of 70 seconds.  Estimated final completion at 19:45:01.                                                                                                                                     Time: 5 of 70 seconds.  Estimated final completion at 19:45:03.                                                                                                                                     Time: 6 of 70 seconds.  Estimated final completion at 19:44:59.                                                                                                                                     Time: 7 of 70 seconds.  Estimated final completion at 19:45:05.                                                                                                                                     Time: 8 of 70 seconds.  Estimated final completion at 19:45:10.                                                                                                                                     Time: 9 of 70 seconds.  Estimated final completion at 19:44:59.                                                                                                                                     Time: 10 of 70 seconds.  Estimated final completion at 19:45:12.                                                                                                                                    Time: 11 of 70 seconds.  Estimated final completion at 19:45:25.                                                                                                                                    Time: 12 of 70 seconds.  Estimated final completion at 19:45:10.                                                                                                                                    Time: 13 of 70 seconds.  Estimated final completion at 19:45:17.                                                                                                                                    Time: 14 of 70 seconds.  Estimated final completion at 19:45:13.                                                                                                                                    Time: 15 of 70 seconds.  Estimated final completion at 19:45:21.                                                                                                                                    Time: 16 of 70 seconds.  Estimated final completion at 19:45:06.                                                                                                                                    Time: 17 of 70 seconds.  Estimated final completion at 19:45:05.                                                                                                                                    Time: 18 of 70 seconds.  Estimated final completion at 19:45:04.                                                                                                                                    Time: 19 of 70 seconds.  Estimated final completion at 19:45:20.                                                                                                                                    Time: 20 of 70 seconds.  Estimated final completion at 19:45:24.                                                                                                                                    Time: 21 of 70 seconds.  Estimated final completion at 19:45:35.                                                                                                                                    Time: 22 of 70 seconds.  Estimated final completion at 19:45:20.                                                                                                                                    Time: 23 of 70 seconds.  Estimated final completion at 19:46:00.                                                                                                                                    Time: 24 of 70 seconds.  Estimated final completion at 19:45:36.                                                                                                                                    Time: 25 of 70 seconds.  Estimated final completion at 19:45:33.                                                                                                                                    Time: 26 of 70 seconds.  Estimated final completion at 19:45:31.                                                                                                                                    Time: 27 of 70 seconds.  Estimated final completion at 19:45:26.                                                                                                                                    Time: 28 of 70 seconds.  Estimated final completion at 19:45:28.                                                                                                                                    Time: 29 of 70 seconds.  Estimated final completion at 19:45:27.                                                                                                                                    Time: 30 of 70 seconds.  Estimated final completion at 19:45:24.                                                                                                                                    Time: 31 of 70 seconds.  Estimated final completion at 19:45:32.                                                                                                                                    Time: 32 of 70 seconds.  Estimated final completion at 19:45:32.                                                                                                                                    Time: 33 of 70 seconds.  Estimated final completion at 19:45:33.                                                                                                                                    Time: 34 of 70 seconds.  Estimated final completion at 19:45:26.                                                                                                                                    Time: 35 of 70 seconds.  Estimated final completion at 19:45:29.                                                                                                                                    Time: 36 of 70 seconds.  Estimated final completion at 19:45:23.                                                                                                                                    Time: 37 of 70 seconds.  Estimated final completion at 19:45:31.                                                                                                                                    Time: 38 of 70 seconds.  Estimated final completion at 19:45:25.                                                                                                                                    Time: 39 of 70 seconds.  Estimated final completion at 19:45:26.                                                                                                                                    Time: 40 of 70 seconds.  Estimated final completion at 19:45:25.                                                                                                                                    Time: 41 of 70 seconds.  Estimated final completion at 19:45:24.                                                                                                                                    Time: 42 of 70 seconds.  Estimated final completion at 19:45:23.                                                                                                                                    Time: 43 of 70 seconds.  Estimated final completion at 19:45:23.                                                                                                                                    Time: 44 of 70 seconds.  Estimated final completion at 19:45:23.                                                                                                                                    Time: 45 of 70 seconds.  Estimated final completion at 19:45:26.                                                                                                                                    Time: 46 of 70 seconds.  Estimated final completion at 19:45:25.                                                                                                                                    Time: 47 of 70 seconds.  Estimated final completion at 19:45:26.                                                                                                                                    Time: 48 of 70 seconds.  Estimated final completion at 19:45:28.                                                                                                                                    Time: 49 of 70 seconds.  Estimated final completion at 19:45:32.                                                                                                                                    Time: 50 of 70 seconds.  Estimated final completion at 19:45:31.                                                                                                                                    Time: 51 of 70 seconds.  Estimated final completion at 19:45:26.                                                                                                                                    Time: 52 of 70 seconds.  Estimated final completion at 19:45:28.                                                                                                                                    Time: 53 of 70 seconds.  Estimated final completion at 19:45:27.                                                                                                                                    Time: 54 of 70 seconds.  Estimated final completion at 19:45:29.                                                                                                                                    Time: 55 of 70 seconds.  Estimated final completion at 19:45:27.                                                                                                                                    Time: 56 of 70 seconds.  Estimated final completion at 19:45:29.                                                                                                                                    Time: 57 of 70 seconds.  Estimated final completion at 19:45:25.                                                                                                                                    Time: 58 of 70 seconds.  Estimated final completion at 19:45:25.                                                                                                                                    Time: 59 of 70 seconds.  Estimated final completion at 19:45:29.                                                                                                                                    Time: 60 of 70 seconds.  Estimated final completion at 19:45:26.                                                                                                                                    Time: 61 of 70 seconds.  Estimated final completion at 19:45:25.                                                                                                                                    Time: 62 of 70 seconds.  Estimated final completion at 19:45:26.                                                                                                                                    Time: 63 of 70 seconds.  Estimated final completion at 19:45:26.                                                                                                                                    Time: 64 of 70 seconds.  Estimated final completion at 19:45:27.                                                                                                                                    Time: 65 of 70 seconds.  Estimated final completion at 19:45:26.                                                                                                                                    Time: 66 of 70 seconds.  Estimated final completion at 19:45:26.                                                                                                                                    Time: 67 of 70 seconds.  Estimated final completion at 19:45:26.                                                                                                                                    Time: 68 of 70 seconds.  Estimated final completion at 19:45:26.                                                                                                                                    Time: 69 of 70 seconds.  Estimated final completion at 19:45:26.                                                                                                                                    Time: 70 of 70 seconds.  Estimated final completion at 19:45:26.                                                                                                                                   
  Total Real Time:       4.2684 minutes
  Total CPU Time:        4.2454 minutes
  Simulation CPU Time:   4.2447 minutes
  Simulated Time:        1.1667 minutes
  Time Ratio (Sim/CPU):  0.27485

  OpenFAST terminated normally.

