
 **************************************************************************************************
 OpenFAST

 Copyright (C) 2020 National Renewable Energy Laboratory
 Copyright (C) 2020 Envision Energy USA LTD

 This program is licensed under Apache License Version 2.0 and comes with ABSOLUTELY NO WARRANTY.
 See the "LICENSE" file distributed with this software for details.
 **************************************************************************************************

 OpenFAST-v2.4.0-50-g416ff436
 Compile Info:
  - Compiler: GCC version 7.4.0
  - Architecture: 64 bit
  - Precision: double
  - Date: Nov  6 2020
  - Time: 12:35:02
 Execution Info:
  - Date: 11/06/2020
  - Time: 12:35:37-0700

 OpenFAST input file heading:
     FAST Certification Test #10: UAE Phase VI (upwind) with no DOFs in a ramped wind.

 Running ElastoDyn.
 Nodal outputs section of ElastoDyn input file not found or improperly formatted.
 Running AeroDyn.
 Nodal output section of AeroDyn input file not found or improperly formatted.
 Running InflowWind.
 Running ServoDyn.
  Time: 0 of 25 seconds.
                                                                                                   Time: 1 of 25 seconds.  Estimated final completion at 12:36:36.                                                                                                                                     Time: 2 of 25 seconds.  Estimated final completion at 12:36:42.                                                                                                                                     Time: 3 of 25 seconds.  Estimated final completion at 12:36:44.                                                                                                                                     Time: 4 of 25 seconds.  Estimated final completion at 12:36:50.                                                                                                                                     Time: 5 of 25 seconds.  Estimated final completion at 12:36:48.                                                                                                                                     Time: 6 of 25 seconds.  Estimated final completion at 12:36:47.                                                                                                                                     Time: 7 of 25 seconds.  Estimated final completion at 12:36:50.                                                                                                                                     Time: 8 of 25 seconds.  Estimated final completion at 12:36:50.                                                                                                                                     Time: 9 of 25 seconds.  Estimated final completion at 12:36:47.                                                                                                                                     Time: 10 of 25 seconds.  Estimated final completion at 12:36:48.                                                                                                                                    Time: 11 of 25 seconds.  Estimated final completion at 12:36:49.                                                                                                                                    Time: 12 of 25 seconds.  Estimated final completion at 12:36:51.                                                                                                                                    Time: 13 of 25 seconds.  Estimated final completion at 12:36:54.                                                                                                                                    Time: 14 of 25 seconds.  Estimated final completion at 12:36:53.                                                                                                                                    Time: 15 of 25 seconds.  Estimated final completion at 12:36:59.                                                                                                                                    Time: 16 of 25 seconds.  Estimated final completion at 12:37:06.                                                                                                                                    Time: 17 of 25 seconds.  Estimated final completion at 12:37:11.                                                                                                                                    Time: 18 of 25 seconds.  Estimated final completion at 12:37:18.                                  The BEM solution is being turned off due to low TSR.  (TSR = 1.9996). This warning will not be
 repeated though the condition may persist. (See GeomPhi output channel.)
                                                                                                   Time: 19 of 25 seconds.  Estimated final completion at 12:37:16.                                                                                                                                    Time: 20 of 25 seconds.  Estimated final completion at 12:37:18.                                                                                                                                    Time: 21 of 25 seconds.  Estimated final completion at 12:37:18.                                                                                                                                    Time: 22 of 25 seconds.  Estimated final completion at 12:37:17.                                                                                                                                    Time: 23 of 25 seconds.  Estimated final completion at 12:37:16.                                                                                                                                    Time: 24 of 25 seconds.  Estimated final completion at 12:37:15.                                                                                                                                    Time: 25 of 25 seconds.  Estimated final completion at 12:37:14.                                                                                                                                   
  Total Real Time:       1.6128 minutes
  Total CPU Time:        1.426 minutes
  Simulation CPU Time:   1.4254 minutes
  Simulated Time:        0.41667 minutes
  Time Ratio (Sim/CPU):  0.29231

  OpenFAST terminated normally.

