
 **************************************************************************************************
 OpenFAST

 Copyright (C) 2021 National Renewable Energy Laboratory
 Copyright (C) 2021 Envision Energy USA LTD

 This program is licensed under Apache License Version 2.0 and comes with ABSOLUTELY NO WARRANTY.
 See the "LICENSE" file distributed with this software for details.
 **************************************************************************************************

 OpenFAST--128-NOTFOUND
 Compile Info:
  - Compiler: Intel(R) Fortran Intel(R) 64 Compiler Classic for applications running on Intel(R)
  64, Version 2021.1.2 Build 20201208_000000
  - Architecture: 64 bit
  - Precision: double
  - Date: Mar 08 2021
  - Time: 13:31:36
 Execution Info:
  - Date: 03/08/2021
  - Time: 14:17:10-0600

 OpenFAST input file heading:
     FAST Certification Test #08: AOC 15/50 with many DOFs with fixed yaw error and steady wind.
     Many parameters are pure fiction.

 Running ElastoDyn.
 Nodal outputs section of ElastoDyn input file not found or improperly formatted.
 Running AeroDyn.
 AD15 Nodal Outputs: Nodal output section of AeroDyn input file not found or improperly formatted.
 Skipping nodal outputs.
 Running InflowWind.
 Running ServoDyn.
  Time: 0 of 20 seconds.

 FAST_Solution:CalcOutputs_And_SolveForInputs:SolveOption2:AD_CalcOutput:BEMT_CalcOutput(node 1,
 blade 1):UA_CalcOutput:UA_BlendSteady:Temporarily turning off UA due to high angle of attack or
 low relative velocity. This warning will not be repeated though the condition may persist.

+                                                                                                  
+ Time: 5 of 20 seconds.  Estimated final completion at 14:17:49.
+                                                                                                  
+ Time: 10 of 20 seconds.  Estimated final completion at 14:17:48.
+                                                                                                  
+ Time: 15 of 20 seconds.  Estimated final completion at 14:17:48.
+                                                                                                  
+ Time: 20 of 20 seconds.  Estimated final completion at 14:17:48.
+                                                                                                  

  Total Real Time:       37.782 seconds
  Total CPU Time:        35.891 seconds
  Simulation CPU Time:   35.766 seconds
  Simulated Time:        20 seconds
  Time Ratio (Sim/CPU):  0.5592

  OpenFAST terminated normally.

