
**************************************************************************************************
OpenFAST

Copyright (C) 2021 National Renewable Energy Laboratory
Copyright (C) 2021 Envision Energy USA LTD

This program is licensed under Apache License Version 2.0 and comes with ABSOLUTELY NO WARRANTY.
See the "LICENSE" file distributed with this software for details.
**************************************************************************************************

OpenFAST-v1.0.0-1800-g1082ba16
Compile Info:
 - Compiler: Intel(R) Fortran Intel(R) 64 Compiler Classic for applications running on Intel(R)
 64, Version 2021.1 Build 20201112_000000
 - Architecture: 64 bit
 - Precision: double
 - Date: Jan 28 2021
 - Time: 16:01:43
Execution Info:
 - Date: 01/28/2021
 - Time: 17:16:23-0600

OpenFAST input file heading:
    FAST Certification Test #20: NREL 5.0 MW Baseline Wind Turbine with OC3 Tripod Configuration,
    for use in offshore analysis

Running ElastoDyn.
Nodal outputs section of ElastoDyn input file not found or improperly formatted.
Running AeroDyn.
AD15 Nodal Outputs: Nodal output section of AeroDyn input file not found or improperly formatted.
Skipping nodal outputs.
Warning: Turning off Unsteady Aerodynamics because C_nalpha is 0. (node 1, blade 1)
Warning: Turning off Unsteady Aerodynamics because C_nalpha is 0. (node 2, blade 1)
Warning: Turning off Unsteady Aerodynamics because C_nalpha is 0. (node 3, blade 1)
Warning: Turning off Unsteady Aerodynamics because C_nalpha is 0. (node 4, blade 1)
Warning: Turning off Unsteady Aerodynamics because C_nalpha is 0. (node 1, blade 2)
Warning: Turning off Unsteady Aerodynamics because C_nalpha is 0. (node 2, blade 2)
Warning: Turning off Unsteady Aerodynamics because C_nalpha is 0. (node 3, blade 2)
Warning: Turning off Unsteady Aerodynamics because C_nalpha is 0. (node 4, blade 2)
Warning: Turning off Unsteady Aerodynamics because C_nalpha is 0. (node 1, blade 3)
Warning: Turning off Unsteady Aerodynamics because C_nalpha is 0. (node 2, blade 3)
Warning: Turning off Unsteady Aerodynamics because C_nalpha is 0. (node 3, blade 3)
Warning: Turning off Unsteady Aerodynamics because C_nalpha is 0. (node 4, blade 3)
Running InflowWind.
Running ServoDyn.
Running ServoDyn Interface for Bladed Controllers (using Intel Visual Fortran for Windows, ).
Using legacy Bladed DLL interface.
Running HydroDyn.
  WARNING:  The requested output channel is invalid: M1N1FAxi
  WARNING:  The requested output channel is invalid: M1N1FAzi
 Generating incident wave kinematics and current time history.
Running SubDyn.
   Fixed bottom case detected
   Performing Craig-Bampton reduction 948 DOFs -> 12 modes + 6 DOFs
   Using static improvement method for gravity and ext. loads
   SubDyn recommended dt: 0.00782 - Current dt: 0.00800 - Max frequency: 6.39559
   Calculating Full System Modes for summary file

FAST_InitializeAll:HydroDyn_Init:HydroDynInput_ProcessInitData: A requested output channel is
invalid

 Time: 0 of 60 seconds.

FAST_Solution:FAST_AdvanceStates:SrvD_UpdateStates:DLL_controller_call:BladedInterface option was
designed for an explicit-loose coupling scheme. Using last calculated values from DLL on all
subsequent calls until time is advanced. Warning will not be displayed again.
                                                                                                   Time: 1 of 60 seconds.  Estimated final completion at 17:37:32.                                                                                                   Time: 2 of 60 seconds.  Estimated final completion at 17:25:38.                                                                                                   Time: 3 of 60 seconds.  Estimated final completion at 17:25:30.                                                                                                   Time: 4 of 60 seconds.  Estimated final completion at 17:24:21.                                                                                                   Time: 5 of 60 seconds.  Estimated final completion at 17:24:27.                                                                                                   Time: 6 of 60 seconds.  Estimated final completion at 17:24:52.                                                                                                   Time: 7 of 60 seconds.  Estimated final completion at 17:25:16.                                                                                                   Time: 8 of 60 seconds.  Estimated final completion at 17:23:44.                                                                                                   Time: 9 of 60 seconds.  Estimated final completion at 17:24:26.                                                                                                   Time: 10 of 60 seconds.  Estimated final completion at 17:23:52.                                                                                                   Time: 11 of 60 seconds.  Estimated final completion at 17:23:48.                                                                                                   Time: 12 of 60 seconds.  Estimated final completion at 17:23:50.                                                                                                   Time: 13 of 60 seconds.  Estimated final completion at 17:23:55.                                                                                                   Time: 14 of 60 seconds.  Estimated final completion at 17:24:13.                                                                                                   Time: 15 of 60 seconds.  Estimated final completion at 17:24:01.                                                                                                   Time: 16 of 60 seconds.  Estimated final completion at 17:23:43.                                                                                                   Time: 17 of 60 seconds.  Estimated final completion at 17:23:44.                                                                                                   Time: 18 of 60 seconds.  Estimated final completion at 17:23:37.                                                                                                   Time: 19 of 60 seconds.  Estimated final completion at 17:23:44.                                                                                                   Time: 20 of 60 seconds.  Estimated final completion at 17:23:44.                                                                                                   Time: 21 of 60 seconds.  Estimated final completion at 17:23:46.                                                                                                   Time: 22 of 60 seconds.  Estimated final completion at 17:23:38.                                                                                                   Time: 23 of 60 seconds.  Estimated final completion at 17:23:41.                                                                                                   Time: 24 of 60 seconds.  Estimated final completion at 17:23:43.                                                                                                   Time: 25 of 60 seconds.  Estimated final completion at 17:24:31.                                                                                                   Time: 26 of 60 seconds.  Estimated final completion at 17:24:02.                                                                                                   Time: 27 of 60 seconds.  Estimated final completion at 17:24:06.                                                                                                   Time: 28 of 60 seconds.  Estimated final completion at 17:24:13.                                                                                                   Time: 29 of 60 seconds.  Estimated final completion at 17:24:26.                                                                                                   Time: 30 of 60 seconds.  Estimated final completion at 17:24:17.                                                                                                   Time: 31 of 60 seconds.  Estimated final completion at 17:24:33.                                                                                                   Time: 32 of 60 seconds.  Estimated final completion at 17:24:13.                                                                                                   Time: 33 of 60 seconds.  Estimated final completion at 17:24:04.                                                                                                   Time: 34 of 60 seconds.  Estimated final completion at 17:24:06.                                                                                                   Time: 35 of 60 seconds.  Estimated final completion at 17:24:06.                                                                                                   Time: 36 of 60 seconds.  Estimated final completion at 17:24:30.                                                                                                   Time: 37 of 60 seconds.  Estimated final completion at 17:24:43.                                                                                                   Time: 38 of 60 seconds.  Estimated final completion at 17:24:43.                                                                                                   Time: 39 of 60 seconds.  Estimated final completion at 17:24:54.                                                                                                   Time: 40 of 60 seconds.  Estimated final completion at 17:24:56.                                                                                                   Time: 41 of 60 seconds.  Estimated final completion at 17:24:51.                                                                                                   Time: 42 of 60 seconds.  Estimated final completion at 17:24:34.                                                                                                   Time: 43 of 60 seconds.  Estimated final completion at 17:24:43.                                                                                                   Time: 44 of 60 seconds.  Estimated final completion at 17:24:29.                                                                                                   Time: 45 of 60 seconds.  Estimated final completion at 17:24:25.                                                                                                   Time: 46 of 60 seconds.  Estimated final completion at 17:24:30.                                                                                                   Time: 47 of 60 seconds.  Estimated final completion at 17:24:30.                                                                                                   Time: 48 of 60 seconds.  Estimated final completion at 17:24:28.                                                                                                   Time: 49 of 60 seconds.  Estimated final completion at 17:24:26.                                                                                                   Time: 50 of 60 seconds.  Estimated final completion at 17:24:26.                                                                                                   Time: 51 of 60 seconds.  Estimated final completion at 17:24:26.                                                                                                   Time: 52 of 60 seconds.  Estimated final completion at 17:24:25.                                                                                                   Time: 53 of 60 seconds.  Estimated final completion at 17:24:24.                                                                                                   Time: 54 of 60 seconds.  Estimated final completion at 17:24:26.                                                                                                   Time: 55 of 60 seconds.  Estimated final completion at 17:24:26.                                                                                                   Time: 56 of 60 seconds.  Estimated final completion at 17:24:28.                                                                                                   Time: 57 of 60 seconds.  Estimated final completion at 17:24:27.                                                                                                   Time: 58 of 60 seconds.  Estimated final completion at 17:24:26.                                                                                                   Time: 59 of 60 seconds.  Estimated final completion at 17:24:27.                                                                                                   Time: 60 of 60 seconds.  Estimated final completion at 17:24:26.                                                                                                  

 Total Real Time:       8.0543 minutes
 Total CPU Time:        8.0422 minutes
 Simulation CPU Time:   7.638 minutes
 Simulated Time:        1.0001 minutes
 Time Ratio (Sim/CPU):  0.13094

 OpenFAST terminated normally.

