
**************************************************************************************************
OpenFAST

Copyright (C) 2022 National Renewable Energy Laboratory
Copyright (C) 2022 Envision Energy USA LTD

This program is licensed under Apache License Version 2.0 and comes with ABSOLUTELY NO WARRANTY.
See the "LICENSE" file distributed with this software for details.
**************************************************************************************************

OpenFAST-v3.1.0-243-ge6028eae
Compile Info:
 - Compiler: Intel(R) Fortran Intel(R) 64 Compiler Classic for applications running on Intel(R)
 64, Version 2021.1 Build 20201112_000000
 - Architecture: 64 bit
 - Precision: double
 - OpenMP: No
 - Date: Jul 06 2022
 - Time: 23:27:00
Execution Info:
 - Date: 07/07/2022
 - Time: 15:29:34-0500

OpenFAST input file heading:
    FAST Certification Test #20: NREL 5.0 MW Baseline Wind Turbine with OC3 Tripod Configuration,
    for use in offshore analysis

Running ElastoDyn.
Nodal outputs section of ElastoDyn input file not found or improperly formatted.
Running AeroDyn.
AD15 Nodal Outputs: Nodal output section of AeroDyn input file not found or improperly formatted.
Skipping nodal outputs.
Warning: Turning off Unsteady Aerodynamics because UA parameters are not included in airfoil
(airfoil has likely has constant polars). (node 1, blade 1)
Warning: Turning off Unsteady Aerodynamics because UA parameters are not included in airfoil
(airfoil has likely has constant polars). (node 2, blade 1)
Warning: Turning off Unsteady Aerodynamics because UA parameters are not included in airfoil
(airfoil has likely has constant polars). (node 3, blade 1)
Warning: Turning off Unsteady Aerodynamics because UA parameters are not included in airfoil
(airfoil has likely has constant polars). (node 4, blade 1)
Warning: Turning off Unsteady Aerodynamics because UA parameters are not included in airfoil
(airfoil has likely has constant polars). (node 1, blade 2)
Warning: Turning off Unsteady Aerodynamics because UA parameters are not included in airfoil
(airfoil has likely has constant polars). (node 2, blade 2)
Warning: Turning off Unsteady Aerodynamics because UA parameters are not included in airfoil
(airfoil has likely has constant polars). (node 3, blade 2)
Warning: Turning off Unsteady Aerodynamics because UA parameters are not included in airfoil
(airfoil has likely has constant polars). (node 4, blade 2)
Warning: Turning off Unsteady Aerodynamics because UA parameters are not included in airfoil
(airfoil has likely has constant polars). (node 1, blade 3)
Warning: Turning off Unsteady Aerodynamics because UA parameters are not included in airfoil
(airfoil has likely has constant polars). (node 2, blade 3)
Warning: Turning off Unsteady Aerodynamics because UA parameters are not included in airfoil
(airfoil has likely has constant polars). (node 3, blade 3)
Warning: Turning off Unsteady Aerodynamics because UA parameters are not included in airfoil
(airfoil has likely has constant polars). (node 4, blade 3)
Running InflowWind.
Running HydroDyn.
  WARNING:  The requested output channel is invalid: M1N1FAxi
  WARNING:  The requested output channel is invalid: M1N1FAzi
 Generating incident wave kinematics and current time history.
Running SubDyn.
   Fixed bottom case detected
   Performing Craig-Bampton reduction 948 DOFs -> 12 modes + 6 DOFs
   Using static improvement method for gravity and ext. loads
   SubDyn recommended dt: 0.00782 - Current dt: 0.00800 - Max frequency:    6.396
   Calculating Full System Modes for output files
   Exporting Summary file
Running ServoDyn.
Running ServoDyn Interface for Bladed Controllers (using Intel Visual Fortran for Windows).
Using legacy Bladed DLL interface.

FAST_InitializeAll:HydroDyn_Init:HydroDynInput_ProcessInitData: A requested output channel is
invalid

 Time: 0 of 60 seconds.

FAST_Solution:FAST_AdvanceStates:SrvD_UpdateStates:DLL_controller_call:BladedInterface option was
designed for an explicit-loose coupling scheme. Using last calculated values from DLL on all
subsequent calls until time is advanced. Warning will not be displayed again.
                                                                                                   Time: 1 of 60 seconds.  Estimated final completion at 15:45:13.                                                                                                   Time: 2 of 60 seconds.  Estimated final completion at 15:36:54.                                                                                                   Time: 3 of 60 seconds.  Estimated final completion at 15:36:42.                                                                                                   Time: 4 of 60 seconds.  Estimated final completion at 15:36:49.                                                                                                   Time: 5 of 60 seconds.  Estimated final completion at 15:37:12.                                                                                                   Time: 6 of 60 seconds.  Estimated final completion at 15:37:33.                                                                                                   Time: 7 of 60 seconds.  Estimated final completion at 15:37:15.                                                                                                   Time: 8 of 60 seconds.  Estimated final completion at 15:37:10.                                                                                                   Time: 9 of 60 seconds.  Estimated final completion at 15:37:19.                                                                                                   Time: 10 of 60 seconds.  Estimated final completion at 15:37:11.                                                                                                   Time: 11 of 60 seconds.  Estimated final completion at 15:37:15.                                                                                                   Time: 12 of 60 seconds.  Estimated final completion at 15:37:15.                                                                                                   Time: 13 of 60 seconds.  Estimated final completion at 15:37:22.                                                                                                   Time: 14 of 60 seconds.  Estimated final completion at 15:37:11.                                                                                                   Time: 15 of 60 seconds.  Estimated final completion at 15:37:29.                                                                                                   Time: 16 of 60 seconds.  Estimated final completion at 15:37:30.                                                                                                   Time: 17 of 60 seconds.  Estimated final completion at 15:37:23.                                                                                                   Time: 18 of 60 seconds.  Estimated final completion at 15:37:22.                                                                                                   Time: 19 of 60 seconds.  Estimated final completion at 15:37:26.                                                                                                   Time: 20 of 60 seconds.  Estimated final completion at 15:37:25.                                                                                                   Time: 21 of 60 seconds.  Estimated final completion at 15:37:26.                                                                                                   Time: 22 of 60 seconds.  Estimated final completion at 15:37:30.                                                                                                   Time: 23 of 60 seconds.  Estimated final completion at 15:37:32.                                                                                                   Time: 24 of 60 seconds.  Estimated final completion at 15:37:27.                                                                                                   Time: 25 of 60 seconds.  Estimated final completion at 15:37:22.                                                                                                   Time: 26 of 60 seconds.  Estimated final completion at 15:37:16.                                                                                                   Time: 27 of 60 seconds.  Estimated final completion at 15:37:28.                                                                                                   Time: 28 of 60 seconds.  Estimated final completion at 15:37:22.                                                                                                   Time: 29 of 60 seconds.  Estimated final completion at 15:37:20.                                                                                                   Time: 30 of 60 seconds.  Estimated final completion at 15:37:24.                                                                                                   Time: 31 of 60 seconds.  Estimated final completion at 15:37:19.                                                                                                   Time: 32 of 60 seconds.  Estimated final completion at 15:37:21.                                                                                                   Time: 33 of 60 seconds.  Estimated final completion at 15:37:20.                                                                                                   Time: 34 of 60 seconds.  Estimated final completion at 15:37:31.                                                                                                   Time: 35 of 60 seconds.  Estimated final completion at 15:37:30.                                                                                                   Time: 36 of 60 seconds.  Estimated final completion at 15:37:34.                                                                                                   Time: 37 of 60 seconds.  Estimated final completion at 15:37:37.                                                                                                   Time: 38 of 60 seconds.  Estimated final completion at 15:37:31.                                                                                                   Time: 39 of 60 seconds.  Estimated final completion at 15:37:27.                                                                                                   Time: 40 of 60 seconds.  Estimated final completion at 15:37:27.                                                                                                   Time: 41 of 60 seconds.  Estimated final completion at 15:37:38.                                                                                                   Time: 42 of 60 seconds.  Estimated final completion at 15:37:32.                                                                                                   Time: 43 of 60 seconds.  Estimated final completion at 15:37:32.                                                                                                   Time: 44 of 60 seconds.  Estimated final completion at 15:37:36.                                                                                                   Time: 45 of 60 seconds.  Estimated final completion at 15:37:32.                                                                                                   Time: 46 of 60 seconds.  Estimated final completion at 15:37:31.                                                                                                   Time: 47 of 60 seconds.  Estimated final completion at 15:37:33.                                                                                                   Time: 48 of 60 seconds.  Estimated final completion at 15:37:32.                                                                                                   Time: 49 of 60 seconds.  Estimated final completion at 15:37:42.                                                                                                   Time: 50 of 60 seconds.  Estimated final completion at 15:37:33.                                                                                                   Time: 51 of 60 seconds.  Estimated final completion at 15:37:33.                                                                                                   Time: 52 of 60 seconds.  Estimated final completion at 15:37:31.                                                                                                   Time: 53 of 60 seconds.  Estimated final completion at 15:37:30.                                                                                                   Time: 54 of 60 seconds.  Estimated final completion at 15:37:30.                                                                                                   Time: 55 of 60 seconds.  Estimated final completion at 15:37:30.                                                                                                   Time: 56 of 60 seconds.  Estimated final completion at 15:37:30.                                                                                                   Time: 57 of 60 seconds.  Estimated final completion at 15:37:30.                                                                                                   Time: 58 of 60 seconds.  Estimated final completion at 15:37:30.                                                                                                   Time: 59 of 60 seconds.  Estimated final completion at 15:37:30.                                                                                                   Time: 60 of 60 seconds.  Estimated final completion at 15:37:30.                                                                                                  

 Total Real Time:       7.9199 minutes
 Total CPU Time:        7.9154 minutes
 Simulation CPU Time:   7.5807 minutes
 Simulated Time:        1.0001 minutes
 Time Ratio (Sim/CPU):  0.13193

 OpenFAST terminated normally.

