
**************************************************************************************************
OpenFAST

Copyright (C) 2021 National Renewable Energy Laboratory
Copyright (C) 2021 Envision Energy USA LTD

This program is licensed under Apache License Version 2.0 and comes with ABSOLUTELY NO WARRANTY.
See the "LICENSE" file distributed with this software for details.
**************************************************************************************************

OpenFAST-v2.4.0-137-gb5d9a13c
Compile Info:
 - Compiler: Intel(R) Fortran Intel(R) 64 Compiler Classic for applications running on Intel(R)
 64, Version 2021.1 Build 20201112_000000
 - Architecture: 64 bit
 - Precision: double
 - Date: Jan 11 2021
 - Time: 20:21:29
Execution Info:
 - Date: 01/11/2021
 - Time: 21:06:19-0600

OpenFAST input file heading:
    FAST Certification Test #20: NREL 5.0 MW Baseline Wind Turbine with OC3 Tripod Configuration,
    for use in offshore analysis

Running ElastoDyn.
Nodal outputs section of ElastoDyn input file not found or improperly formatted.
Running AeroDyn.
Nodal output section of AeroDyn input file not found or improperly formatted.
Warning: Turning off Unsteady Aerodynamics because C_nalpha is 0. (node 1, blade 1)
Warning: Turning off Unsteady Aerodynamics because C_nalpha is 0. (node 2, blade 1)
Warning: Turning off Unsteady Aerodynamics because C_nalpha is 0. (node 3, blade 1)
Warning: Turning off Unsteady Aerodynamics because C_nalpha is 0. (node 4, blade 1)
Warning: Turning off Unsteady Aerodynamics because C_nalpha is 0. (node 1, blade 2)
Warning: Turning off Unsteady Aerodynamics because C_nalpha is 0. (node 2, blade 2)
Warning: Turning off Unsteady Aerodynamics because C_nalpha is 0. (node 3, blade 2)
Warning: Turning off Unsteady Aerodynamics because C_nalpha is 0. (node 4, blade 2)
Warning: Turning off Unsteady Aerodynamics because C_nalpha is 0. (node 1, blade 3)
Warning: Turning off Unsteady Aerodynamics because C_nalpha is 0. (node 2, blade 3)
Warning: Turning off Unsteady Aerodynamics because C_nalpha is 0. (node 3, blade 3)
Warning: Turning off Unsteady Aerodynamics because C_nalpha is 0. (node 4, blade 3)
Running InflowWind.
Running ServoDyn.
Running ServoDyn Interface for Bladed Controllers (using Intel Visual Fortran for Windows, ).
Using legacy Bladed DLL interface.
Running HydroDyn.
 Generating incident wave kinematics and current time history.
Running SubDyn.
   Calculating Internal Modal Eigenvectors
 Time: 0 of 60 seconds.

FAST_Solution0:CalcOutputs_And_SolveForInputs:SolveOption2:SrvD_CalcOutput:DLL_controller_call:Run
ning with torque and pitch control of the NREL offshore 5MW baseline wind turbine from DISCON.dll
as written by J. Jonkman of NREL/NWTC for use in the IEA Annex XXIII OC3 studies.


FAST_Solution:FAST_AdvanceStates:SrvD_UpdateStates:DLL_controller_call:BladedInterface option was
designed for an explicit-loose coupling scheme. Using last calculated values from DLL on all
subsequent calls until time is advanced. Warning will not be displayed again.
                                                                                                   Time: 1 of 60 seconds.  Estimated final completion at 21:31:14.                                                                                                   Time: 2 of 60 seconds.  Estimated final completion at 21:15:54.                                                                                                   Time: 3 of 60 seconds.  Estimated final completion at 21:16:17.                                                                                                   Time: 4 of 60 seconds.  Estimated final completion at 21:15:52.                                                                                                   Time: 5 of 60 seconds.  Estimated final completion at 21:16:30.                                                                                                   Time: 6 of 60 seconds.  Estimated final completion at 21:17:21.                                                                                                   Time: 7 of 60 seconds.  Estimated final completion at 21:17:21.                                                                                                   Time: 8 of 60 seconds.  Estimated final completion at 21:18:11.                                                                                                   Time: 9 of 60 seconds.  Estimated final completion at 21:19:03.                                                                                                   Time: 10 of 60 seconds.  Estimated final completion at 21:17:43.                                                                                                   Time: 11 of 60 seconds.  Estimated final completion at 21:17:06.                                                                                                   Time: 12 of 60 seconds.  Estimated final completion at 21:16:22.                                                                                                   Time: 13 of 60 seconds.  Estimated final completion at 21:16:09.                                                                                                   Time: 14 of 60 seconds.  Estimated final completion at 21:16:19.                                                                                                   Time: 15 of 60 seconds.  Estimated final completion at 21:16:29.                                                                                                   Time: 16 of 60 seconds.  Estimated final completion at 21:16:13.                                                                                                   Time: 17 of 60 seconds.  Estimated final completion at 21:16:13.                                                                                                   Time: 18 of 60 seconds.  Estimated final completion at 21:16:13.                                                                                                   Time: 19 of 60 seconds.  Estimated final completion at 21:16:09.                                                                                                   Time: 20 of 60 seconds.  Estimated final completion at 21:16:12.                                                                                                   Time: 21 of 60 seconds.  Estimated final completion at 21:16:18.                                                                                                   Time: 22 of 60 seconds.  Estimated final completion at 21:16:17.                                                                                                   Time: 23 of 60 seconds.  Estimated final completion at 21:16:14.                                                                                                   Time: 24 of 60 seconds.  Estimated final completion at 21:16:13.                                                                                                   Time: 25 of 60 seconds.  Estimated final completion at 21:16:12.                                                                                                   Time: 26 of 60 seconds.  Estimated final completion at 21:16:10.                                                                                                   Time: 27 of 60 seconds.  Estimated final completion at 21:16:09.                                                                                                   Time: 28 of 60 seconds.  Estimated final completion at 21:16:08.                                                                                                   Time: 29 of 60 seconds.  Estimated final completion at 21:16:09.                                                                                                   Time: 30 of 60 seconds.  Estimated final completion at 21:16:08.                                                                                                   Time: 31 of 60 seconds.  Estimated final completion at 21:16:09.                                                                                                   Time: 32 of 60 seconds.  Estimated final completion at 21:16:10.                                                                                                   Time: 33 of 60 seconds.  Estimated final completion at 21:16:09.                                                                                                   Time: 34 of 60 seconds.  Estimated final completion at 21:16:07.                                                                                                   Time: 35 of 60 seconds.  Estimated final completion at 21:16:06.                                                                                                   Time: 36 of 60 seconds.  Estimated final completion at 21:16:10.                                                                                                   Time: 37 of 60 seconds.  Estimated final completion at 21:16:02.                                                                                                   Time: 38 of 60 seconds.  Estimated final completion at 21:16:06.                                                                                                   Time: 39 of 60 seconds.  Estimated final completion at 21:16:05.                                                                                                   Time: 40 of 60 seconds.  Estimated final completion at 21:16:06.                                                                                                   Time: 41 of 60 seconds.  Estimated final completion at 21:16:05.                                                                                                   Time: 42 of 60 seconds.  Estimated final completion at 21:16:06.                                                                                                   Time: 43 of 60 seconds.  Estimated final completion at 21:16:05.                                                                                                   Time: 44 of 60 seconds.  Estimated final completion at 21:16:05.                                                                                                   Time: 45 of 60 seconds.  Estimated final completion at 21:16:06.                                                                                                   Time: 46 of 60 seconds.  Estimated final completion at 21:16:05.                                                                                                   Time: 47 of 60 seconds.  Estimated final completion at 21:16:05.                                                                                                   Time: 48 of 60 seconds.  Estimated final completion at 21:16:05.                                                                                                   Time: 49 of 60 seconds.  Estimated final completion at 21:16:05.                                                                                                   Time: 50 of 60 seconds.  Estimated final completion at 21:16:05.                                                                                                   Time: 51 of 60 seconds.  Estimated final completion at 21:16:06.                                                                                                   Time: 52 of 60 seconds.  Estimated final completion at 21:16:05.                                                                                                   Time: 53 of 60 seconds.  Estimated final completion at 21:16:05.                                                                                                   Time: 54 of 60 seconds.  Estimated final completion at 21:16:05.                                                                                                   Time: 55 of 60 seconds.  Estimated final completion at 21:16:05.                                                                                                   Time: 56 of 60 seconds.  Estimated final completion at 21:16:05.                                                                                                   Time: 57 of 60 seconds.  Estimated final completion at 21:16:05.                                                                                                   Time: 58 of 60 seconds.  Estimated final completion at 21:16:05.                                                                                                   Time: 59 of 60 seconds.  Estimated final completion at 21:16:05.                                                                                                   Time: 60 of 60 seconds.  Estimated final completion at 21:16:05.                                                                                                  

 Total Real Time:       9.7607 minutes
 Total CPU Time:        9.7453 minutes
 Simulation CPU Time:   9.3331 minutes
 Simulated Time:        1.0001 minutes
 Time Ratio (Sim/CPU):  0.10716

 OpenFAST terminated normally.

