
 **************************************************************************************************
 OpenFAST

 Copyright (C) 2021 National Renewable Energy Laboratory
 Copyright (C) 2021 Envision Energy USA LTD

 This program is licensed under Apache License Version 2.0 and comes with ABSOLUTELY NO WARRANTY.
 See the "LICENSE" file distributed with this software for details.
 **************************************************************************************************

 OpenFAST-v2.4.0-138-g9a6c1967
 Compile Info:
  - Compiler: Intel(R) Fortran Intel(R) 64 Compiler Classic for applications running on Intel(R)
  64, Version 2021.1.2 Build 20201208_000000
  - Architecture: 64 bit
  - Precision: double
  - Date: Jan 12 2021
  - Time: 13:31:16
 Execution Info:
  - Date: 01/12/2021
  - Time: 14:05:53-0600

 OpenFAST input file heading:
     FAST Certification Test #02: AWT-27CR2 with many DOFs with startup and shutdown and steady
     wind

 Running ElastoDyn.
 Nodal outputs section of ElastoDyn input file not found or improperly formatted.
 Running AeroDyn.
 Nodal output section of AeroDyn input file not found or improperly formatted.
 Running InflowWind.
 Running ServoDyn.
  Time: 0 of 20 seconds.
 The BEM solution is being turned off due to low TSR.  (TSR = 0). This warning will not be
 repeated though the condition may persist. (See GeomPhi output channel.)
+                                                                                                  
+ Time: 2 of 20 seconds.  Estimated final completion at 14:06:08.
+                                                                                                  
+ Time: 4 of 20 seconds.  Estimated final completion at 14:06:08.
+                                                                                                  
+ Time: 6 of 20 seconds.  Estimated final completion at 14:06:07.
+                                                                                                  
+ Time: 8 of 20 seconds.  Estimated final completion at 14:06:06.
+                                                                                                  
+ Time: 10 of 20 seconds.  Estimated final completion at 14:06:07.
+                                                                                                  
+ Time: 12 of 20 seconds.  Estimated final completion at 14:06:07.
+                                                                                                  
+ Time: 14 of 20 seconds.  Estimated final completion at 14:06:07.
+                                                                                                  
+ Time: 16 of 20 seconds.  Estimated final completion at 14:06:06.
+                                                                                                  
+ Time: 18 of 20 seconds.  Estimated final completion at 14:06:07.
+                                                                                                  
+ Time: 20 of 20 seconds.  Estimated final completion at 14:06:07.
+                                                                                                  

  Total Real Time:       13.184 seconds
  Total CPU Time:        13.156 seconds
  Simulation CPU Time:   13.031 seconds
  Simulated Time:        20 seconds
  Time Ratio (Sim/CPU):  1.5348

  OpenFAST terminated normally.

