
These predictions were generated by HydroDyn on 07-Mar-2023 at 16:37:51.




    Time                      Wave1Elev                       HydroFxi                       HydroFyi                       HydroFzi                       HydroMxi                       HydroMyi                       HydroMzi                       B1WvsFxi                       B2WvsFxi                       B3WvsFxi                       B4WvsFxi                       B1WvsFyi                       B2WvsFyi                       B3WvsFyi                       B4WvsFyi                       B1WvsFzi                       B2WvsFzi                       B3WvsFzi                       B4WvsFzi                       B1WvsMxi                       B2WvsMxi                       B3WvsMxi                       B4WvsMxi                       B1WvsMyi                       B2WvsMyi                       B3WvsMyi                       B4WvsMyi                       B1WvsMzi                       B2WvsMzi                       B3WvsMzi                       B4WvsMzi                        B1Surge                         B1Sway                        B1Heave                         B1Roll                        B1Pitch                          B1Yaw                        B2Surge                         B2Sway                        B2Heave                         B2Roll                        B2Pitch                          B2Yaw                        B3Surge                         B3Sway                        B3Heave                         B3Roll                        B3Pitch                          B3Yaw                        B4Surge                         B4Sway                        B4Heave                         B4Roll                        B4Pitch                          B4Yaw
   (sec)                            (m)                            (N)                            (N)                            (N)                          (N-m)                          (N-m)                          (N-m)                            (N)                            (N)                            (N)                            (N)                            (N)                            (N)                            (N)                            (N)                            (N)                            (N)                            (N)                            (N)                          (N-m)                          (N-m)                          (N-m)                          (N-m)                          (N-m)                          (N-m)                          (N-m)                          (N-m)                          (N-m)                          (N-m)                          (N-m)                          (N-m)                            (m)                            (m)                            (m)                          (rad)                          (rad)                          (rad)                            (m)                            (m)                            (m)                          (rad)                          (rad)                          (rad)                            (m)                            (m)                            (m)                          (rad)                          (rad)                          (rad)                            (m)                            (m)                            (m)                          (rad)                          (rad)                          (rad)
    0.0000                    -2.0654E-01                     1.5811E+05                     1.6212E-01                     5.2757E+07                     1.1625E+01                    -4.3748E+06                     4.6754E+00                     1.9657E+05                    -1.5772E+05                     2.8978E+05                    -1.5772E+05                    -4.0171E-02                     1.3140E-01                    -2.4763E-02                     9.5648E-02                    -6.1835E+04                     3.0676E+05                     8.5309E+04                     3.0676E+05                    -2.7171E-01                     2.3908E+00                    -8.3579E-01                     3.3107E+00                    -1.0138E+06                     2.4640E+06                    -2.2206E+06                     2.4640E+06                     6.0223E-02                     5.7867E-01                     6.3257E-01                     5.8377E-01                     0.0000E+00                     0.0000E+00                     0.0000E+00                     0.0000E+00                     0.0000E+00                     0.0000E+00                     0.0000E+00                     0.0000E+00                     0.0000E+00                     0.0000E+00                     0.0000E+00                     0.0000E+00                     0.0000E+00                     0.0000E+00                     0.0000E+00                     0.0000E+00                     0.0000E+00                     0.0000E+00                     0.0000E+00                     0.0000E+00                     0.0000E+00                     0.0000E+00                     0.0000E+00                     0.0000E+00
    0.0125                    -2.0134E-01                     1.8638E+05                     1.6244E-01                     5.2751E+07                     1.1659E+01                    -4.7032E+06                     5.0927E+00                     1.9637E+05                    -1.4780E+05                     2.9832E+05                    -1.4780E+05                    -4.0170E-02                     1.3172E-01                    -2.5150E-02                     9.6047E-02                    -6.1984E+04                     3.0462E+05                     8.3095E+04                     3.0462E+05                    -2.7395E-01                     2.4060E+00                    -8.3208E-01                     3.3274E+00                    -1.0114E+06                     2.3404E+06                    -2.2969E+06                     2.3404E+06                     6.0589E-02                     5.8144E-01                     6.3191E-01                     5.8653E-01                     0.0000E+00                     0.0000E+00                     0.0000E+00                     0.0000E+00                     0.0000E+00                     0.0000E+00                     0.0000E+00                     0.0000E+00                     0.0000E+00                     0.0000E+00                     0.0000E+00                     0.0000E+00                     0.0000E+00                     0.0000E+00                     0.0000E+00                     0.0000E+00                     0.0000E+00                     0.0000E+00                     0.0000E+00                     0.0000E+00                     0.0000E+00                     0.0000E+00                     0.0000E+00                     0.0000E+00
    0.0250                    -1.9614E-01                     2.1464E+05                     1.6277E-01                     5.2744E+07                     1.1692E+01                    -5.0316E+06                     5.1194E+00                     1.9616E+05                    -1.3789E+05                     3.0687E+05                    -1.3789E+05                    -4.0169E-02                     1.3203E-01                    -2.5538E-02                     9.6446E-02                    -6.2134E+04                     3.0247E+05                     8.0880E+04                     3.0247E+05                    -2.7620E-01                     2.4212E+00                    -8.2838E-01                     3.3442E+00                    -1.0090E+06                     2.2168E+06                    -2.3733E+06                     2.2168E+06                     6.0956E-02                     5.8422E-01                     6.3124E-01                     5.8929E-01                     0.0000E+00                     0.0000E+00                     0.0000E+00                     0.0000E+00                     0.0000E+00                     0.0000E+00                     0.0000E+00                     0.0000E+00                     0.0000E+00                     0.0000E+00                     0.0000E+00                     0.0000E+00                     0.0000E+00                     0.0000E+00                     0.0000E+00                     0.0000E+00                     0.0000E+00                     0.0000E+00                     0.0000E+00                     0.0000E+00                     0.0000E+00                     0.0000E+00                     0.0000E+00                     0.0000E+00
    0.0375                    -1.9093E-01                     2.4291E+05                     1.6309E-01                     5.2738E+07                     1.0944E+01                    -5.3599E+06                     5.3415E+00                     1.9596E+05                    -1.2797E+05                     3.1541E+05                    -1.2797E+05                    -4.0168E-02                     1.3234E-01                    -2.5926E-02                     9.6845E-02                    -6.2283E+04                     3.0033E+05                     7.8666E+04                     3.0033E+05                    -2.7844E-01                     2.4364E+00                    -8.2467E-01                     3.3609E+00                    -1.0066E+06                     2.0932E+06                    -2.4496E+06                     2.0932E+06                     6.1322E-02                     5.8700E-01                     6.3057E-01                     5.9206E-01                     0.0000E+00                     0.0000E+00                     0.0000E+00                     0.0000E+00                     0.0000E+00                     0.0000E+00                     0.0000E+00                     0.0000E+00                     0.0000E+00                     0.0000E+00                     0.0000E+00                     0.0000E+00                     0.0000E+00                     0.0000E+00                     0.0000E+00                     0.0000E+00                     0.0000E+00                     0.0000E+00                     0.0000E+00                     0.0000E+00                     0.0000E+00                     0.0000E+00                     0.0000E+00                     0.0000E+00
    0.0500                    -1.8573E-01                     2.7117E+05                     1.6342E-01                     5.2731E+07                     1.0978E+01                    -5.6881E+06                     5.7588E+00                     1.9576E+05                    -1.1806E+05                     3.2396E+05                    -1.1806E+05                    -4.0166E-02                     1.3265E-01                    -2.6314E-02                     9.7244E-02                    -6.2433E+04                     2.9819E+05                     7.6451E+04                     2.9819E+05                    -2.8069E-01                     2.4515E+00                    -8.2096E-01                     3.3776E+00                    -1.0042E+06                     1.9696E+06                    -2.5259E+06                     1.9696E+06                     6.1688E-02                     5.8977E-01                     6.2990E-01                     5.9482E-01                     0.0000E+00                     0.0000E+00                     0.0000E+00                     0.0000E+00                     0.0000E+00                     0.0000E+00                     0.0000E+00                     0.0000E+00                     0.0000E+00                     0.0000E+00                     0.0000E+00                     0.0000E+00                     0.0000E+00                     0.0000E+00                     0.0000E+00                     0.0000E+00                     0.0000E+00                     0.0000E+00                     0.0000E+00                     0.0000E+00                     0.0000E+00                     0.0000E+00                     0.0000E+00                     0.0000E+00
    0.0625                    -1.8053E-01                     2.9943E+05                     1.6374E-01                     5.2725E+07                     1.1011E+01                    -6.0162E+06                     5.9808E+00                     1.9555E+05                    -1.0814E+05                     3.3250E+05                    -1.0814E+05                    -4.0165E-02                     1.3297E-01                    -2.6702E-02                     9.7643E-02                    -6.2582E+04                     2.9605E+05                     7.4237E+04                     2.9605E+05                    -2.8293E-01                     2.4667E+00                    -8.1725E-01                     3.3944E+00                    -1.0018E+06                     1.8460E+06                    -2.6023E+06                     1.8460E+06                     6.2055E-02                     5.9255E-01                     6.2923E-01                     5.9758E-01                     0.0000E+00                     0.0000E+00                     0.0000E+00                     0.0000E+00                     0.0000E+00                     0.0000E+00                     0.0000E+00                     0.0000E+00                     0.0000E+00                     0.0000E+00                     0.0000E+00                     0.0000E+00                     0.0000E+00                     0.0000E+00                     0.0000E+00                     0.0000E+00                     0.0000E+00                     0.0000E+00                     0.0000E+00                     0.0000E+00                     0.0000E+00                     0.0000E+00                     0.0000E+00                     0.0000E+00
    0.0750                    -1.7533E-01                     3.2769E+05                     1.6407E-01                     5.2718E+07                     1.0263E+01                    -6.3442E+06                     6.0075E+00                     1.9535E+05                    -9.8229E+04                     3.4105E+05                    -9.8229E+04                    -4.0164E-02                     1.3328E-01                    -2.7090E-02                     9.8043E-02                    -6.2732E+04                     2.9390E+05                     7.2022E+04                     2.9390E+05                    -2.8517E-01                     2.4819E+00                    -8.1354E-01                     3.4111E+00                    -9.9944E+05                     1.7224E+06                    -2.6786E+06                     1.7224E+06                     6.2421E-02                     5.9533E-01                     6.2856E-01                     6.0034E-01                     0.0000E+00                     0.0000E+00                     0.0000E+00                     0.0000E+00                     0.0000E+00                     0.0000E+00                     0.0000E+00                     0.0000E+00                     0.0000E+00                     0.0000E+00                     0.0000E+00                     0.0000E+00                     0.0000E+00                     0.0000E+00                     0.0000E+00                     0.0000E+00                     0.0000E+00                     0.0000E+00                     0.0000E+00                     0.0000E+00                     0.0000E+00                     0.0000E+00                     0.0000E+00                     0.0000E+00
    0.0875                    -1.7012E-01                     3.5594E+05                     1.6439E-01                     5.2712E+07                     1.0296E+01                    -6.6722E+06                     6.2295E+00                     1.9515E+05                    -8.8314E+04                     3.4959E+05                    -8.8314E+04                    -4.0163E-02                     1.3359E-01                    -2.7478E-02                     9.8442E-02                    -6.2881E+04                     2.9176E+05                     6.9808E+04                     2.9176E+05                    -2.8742E-01                     2.4971E+00                    -8.0983E-01                     3.4278E+00                    -9.9705E+05                     1.5988E+06                    -2.7550E+06                     1.5989E+06                     6.2787E-02                     5.9811E-01                     6.2789E-01                     6.0310E-01                     0.0000E+00                     0.0000E+00                     0.0000E+00                     0.0000E+00                     0.0000E+00                     0.0000E+00                     0.0000E+00                     0.0000E+00                     0.0000E+00                     0.0000E+00                     0.0000E+00                     0.0000E+00                     0.0000E+00                     0.0000E+00                     0.0000E+00                     0.0000E+00                     0.0000E+00                     0.0000E+00                     0.0000E+00                     0.0000E+00                     0.0000E+00                     0.0000E+00                     0.0000E+00                     0.0000E+00
    0.1000                    -1.6492E-01                     3.8420E+05                     1.6471E-01                     5.2706E+07                     1.0330E+01                    -7.0000E+06                     6.6468E+00                     1.9494E+05                    -7.8400E+04                     3.5814E+05                    -7.8400E+04                    -4.0161E-02                     1.3390E-01                    -2.7866E-02                     9.8841E-02                    -6.3031E+04                     2.8962E+05                     6.7593E+04                     2.8962E+05                    -2.8966E-01                     2.5122E+00                    -8.0612E-01                     3.4445E+00                    -9.9465E+05                     1.4753E+06                    -2.8313E+06                     1.4753E+06                     6.3154E-02                     6.0088E-01                     6.2723E-01                     6.0587E-01                     0.0000E+00                     0.0000E+00                     0.0000E+00                     0.0000E+00                     0.0000E+00                     0.0000E+00                     0.0000E+00                     0.0000E+00                     0.0000E+00                     0.0000E+00                     0.0000E+00                     0.0000E+00                     0.0000E+00                     0.0000E+00                     0.0000E+00                     0.0000E+00                     0.0000E+00                     0.0000E+00                     0.0000E+00                     0.0000E+00                     0.0000E+00                     0.0000E+00                     0.0000E+00                     0.0000E+00
    0.1125                    -1.5972E-01                     4.1245E+05                     1.6504E-01                     5.2699E+07                     1.0363E+01                    -7.3277E+06                     6.8688E+00                     1.9474E+05                    -6.8485E+04                     3.6668E+05                    -6.8485E+04                    -4.0160E-02                     1.3421E-01                    -2.8254E-02                     9.9240E-02                    -6.3180E+04                     2.8748E+05                     6.5378E+04                     2.8748E+05                    -2.9191E-01                     2.5274E+00                    -8.0242E-01                     3.4613E+00                    -9.9225E+05                     1.3517E+06                    -2.9076E+06                     1.3517E+06                     6.3520E-02                     6.0366E-01                     6.2656E-01                     6.0863E-01                     0.0000E+00                     0.0000E+00                     0.0000E+00                     0.0000E+00                     0.0000E+00                     0.0000E+00                     0.0000E+00                     0.0000E+00                     0.0000E+00                     0.0000E+00                     0.0000E+00                     0.0000E+00                     0.0000E+00                     0.0000E+00                     0.0000E+00                     0.0000E+00                     0.0000E+00                     0.0000E+00                     0.0000E+00                     0.0000E+00                     0.0000E+00                     0.0000E+00                     0.0000E+00                     0.0000E+00
    0.1250                    -1.5452E-01                     4.4070E+05                     1.6536E-01                     5.2693E+07                     1.0396E+01                    -7.6554E+06                     7.2862E+00                     1.9453E+05                    -5.8570E+04                     3.7523E+05                    -5.8570E+04                    -4.0159E-02                     1.3453E-01                    -2.8642E-02                     9.9639E-02                    -6.3330E+04                     2.8534E+05                     6.3164E+04                     2.8533E+05                    -2.9415E-01                     2.5426E+00                    -7.9871E-01                     3.4780E+00                    -9.8986E+05                     1.2281E+06                    -2.9840E+06                     1.2281E+06                     6.3887E-02                     6.0644E-01                     6.2589E-01                     6.1139E-01                     0.0000E+00                     0.0000E+00                     0.0000E+00                     0.0000E+00                     0.0000E+00                     0.0000E+00                     0.0000E+00                     0.0000E+00                     0.0000E+00                     0.0000E+00                     0.0000E+00                     0.0000E+00                     0.0000E+00                     0.0000E+00                     0.0000E+00                     0.0000E+00                     0.0000E+00                     0.0000E+00                     0.0000E+00                     0.0000E+00                     0.0000E+00                     0.0000E+00                     0.0000E+00                     0.0000E+00
    0.1375                    -1.4931E-01                     4.6895E+05                     1.6569E-01                     5.2686E+07                     1.0430E+01                    -7.9830E+06                     7.5082E+00                     1.9433E+05                    -4.8655E+04                     3.8377E+05                    -4.8655E+04                    -4.0158E-02                     1.3484E-01                    -2.9030E-02                     1.0004E-01                    -6.3479E+04                     2.8319E+05                     6.0949E+04                     2.8319E+05                    -2.9640E-01                     2.5578E+00                    -7.9500E-01                     3.4947E+00                    -9.8746E+05                     1.1045E+06                    -3.0603E+06                     1.1045E+06                     6.4253E-02                     6.0921E-01                     6.2522E-01                     6.1415E-01                     0.0000E+00                     0.0000E+00                     0.0000E+00                     0.0000E+00                     0.0000E+00                     0.0000E+00                     0.0000E+00                     0.0000E+00                     0.0000E+00                     0.0000E+00                     0.0000E+00                     0.0000E+00                     0.0000E+00                     0.0000E+00                     0.0000E+00                     0.0000E+00                     0.0000E+00                     0.0000E+00                     0.0000E+00                     0.0000E+00                     0.0000E+00                     0.0000E+00                     0.0000E+00                     0.0000E+00
    0.1500                    -1.4411E-01                     4.9719E+05                     1.6601E-01                     5.2680E+07                     9.6820E+00                    -8.3105E+06                     7.5349E+00                     1.9413E+05                    -3.8740E+04                     3.9232E+05                    -3.8740E+04                    -4.0156E-02                     1.3515E-01                    -2.9418E-02                     1.0044E-01                    -6.3629E+04                     2.8105E+05                     5.8735E+04                     2.8105E+05                    -2.9864E-01                     2.5729E+00                    -7.9129E-01                     3.5115E+00                    -9.8507E+05                     9.8086E+05                    -3.1366E+06                     9.8086E+05                     6.4619E-02                     6.1199E-01                     6.2455E-01                     6.1691E-01                     0.0000E+00                     0.0000E+00                     0.0000E+00                     0.0000E+00                     0.0000E+00                     0.0000E+00                     0.0000E+00                     0.0000E+00                     0.0000E+00                     0.0000E+00                     0.0000E+00                     0.0000E+00                     0.0000E+00                     0.0000E+00                     0.0000E+00                     0.0000E+00                     0.0000E+00                     0.0000E+00                     0.0000E+00                     0.0000E+00                     0.0000E+00                     0.0000E+00                     0.0000E+00                     0.0000E+00
    0.1625                    -1.3891E-01                     5.2544E+05                     1.6634E-01                     5.2673E+07                     9.7153E+00                    -8.6379E+06                     7.9522E+00                     1.9392E+05                    -2.8825E+04                     4.0086E+05                    -2.8825E+04                    -4.0155E-02                     1.3546E-01                    -2.9805E-02                     1.0084E-01                    -6.3778E+04                     2.7891E+05                     5.6520E+04                     2.7891E+05                    -3.0088E-01                     2.5881E+00                    -7.8758E-01                     3.5282E+00                    -9.8267E+05                     8.5726E+05                    -3.2130E+06                     8.5726E+05                     6.4986E-02                     6.1477E-01                     6.2388E-01                     6.1967E-01                     0.0000E+00                     0.0000E+00                     0.0000E+00                     0.0000E+00                     0.0000E+00                     0.0000E+00                     0.0000E+00                     0.0000E+00                     0.0000E+00                     0.0000E+00                     0.0000E+00                     0.0000E+00                     0.0000E+00                     0.0000E+00                     0.0000E+00                     0.0000E+00                     0.0000E+00                     0.0000E+00                     0.0000E+00                     0.0000E+00                     0.0000E+00                     0.0000E+00                     0.0000E+00                     0.0000E+00
    0.1750                    -1.3370E-01                     5.5368E+05                     1.6666E-01                     5.2667E+07                     9.7487E+00                    -8.9652E+06                     7.7836E+00                     1.9372E+05                    -1.8910E+04                     4.0941E+05                    -1.8910E+04                    -4.0154E-02                     1.3577E-01                    -3.0193E-02                     1.0124E-01                    -6.3928E+04                     2.7677E+05                     5.4306E+04                     2.7677E+05                    -3.0313E-01                     2.6033E+00                    -7.8387E-01                     3.5449E+00                    -9.8027E+05                     7.3366E+05                    -3.2893E+06                     7.3366E+05                     6.5352E-02                     6.1754E-01                     6.2321E-01                     6.2244E-01                     0.0000E+00                     0.0000E+00                     0.0000E+00                     0.0000E+00                     0.0000E+00                     0.0000E+00                     0.0000E+00                     0.0000E+00                     0.0000E+00                     0.0000E+00                     0.0000E+00                     0.0000E+00                     0.0000E+00                     0.0000E+00                     0.0000E+00                     0.0000E+00                     0.0000E+00                     0.0000E+00                     0.0000E+00                     0.0000E+00                     0.0000E+00                     0.0000E+00                     0.0000E+00                     0.0000E+00
    0.1875                    -1.2850E-01                     5.8193E+05                     1.6699E-01                     5.2660E+07                     9.0008E+00                    -9.2924E+06                     8.2009E+00                     1.9351E+05                    -8.9951E+03                     4.1795E+05                    -8.9950E+03                    -4.0153E-02                     1.3609E-01                    -3.0581E-02                     1.0163E-01                    -6.4078E+04                     2.7462E+05                     5.2091E+04                     2.7462E+05                    -3.0537E-01                     2.6184E+00                    -7.8017E-01                     3.5616E+00                    -9.7788E+05                     6.1006E+05                    -3.3657E+06                     6.1006E+05                     6.5718E-02                     6.2032E-01                     6.2255E-01                     6.2520E-01                     0.0000E+00                     0.0000E+00                     0.0000E+00                     0.0000E+00                     0.0000E+00                     0.0000E+00                     0.0000E+00                     0.0000E+00                     0.0000E+00                     0.0000E+00                     0.0000E+00                     0.0000E+00                     0.0000E+00                     0.0000E+00                     0.0000E+00                     0.0000E+00                     0.0000E+00                     0.0000E+00                     0.0000E+00                     0.0000E+00                     0.0000E+00                     0.0000E+00                     0.0000E+00                     0.0000E+00
    0.2000                    -1.2330E-01                     6.1017E+05                     1.6731E-01                     5.2654E+07                     9.0342E+00                    -9.6195E+06                     8.5007E+00                     1.9331E+05                     9.1982E+02                     4.2650E+05                     9.1991E+02                    -4.0151E-02                     1.3640E-01                    -3.0969E-02                     1.0203E-01                    -6.4227E+04                     2.7248E+05                     4.9877E+04                     2.7248E+05                    -3.0762E-01                     2.6336E+00                    -7.7646E-01                     3.5784E+00                    -9.7548E+05                     4.8646E+05                    -3.4420E+06                     4.8646E+05                     6.6085E-02                     6.2310E-01                     6.2188E-01                     6.2796E-01                     0.0000E+00                     0.0000E+00                     0.0000E+00                     0.0000E+00                     0.0000E+00                     0.0000E+00                     0.0000E+00                     0.0000E+00                     0.0000E+00                     0.0000E+00                     0.0000E+00                     0.0000E+00                     0.0000E+00                     0.0000E+00                     0.0000E+00                     0.0000E+00                     0.0000E+00                     0.0000E+00                     0.0000E+00                     0.0000E+00                     0.0000E+00                     0.0000E+00                     0.0000E+00                     0.0000E+00
    0.2125                    -1.1849E-01                     6.3506E+05                     1.6778E-01                     5.2647E+07                     9.0649E+00                    -9.9085E+06                     8.4759E+00                     1.9225E+05                     1.0363E+04                     4.3347E+05                     1.0363E+04                    -4.0098E-02                     1.3676E-01                    -3.1403E-02                     1.0252E-01                    -6.4352E+04                     2.6992E+05                     4.7558E+04                     2.6992E+05                    -3.0965E-01                     2.6477E+00                    -7.7345E-01                     3.5940E+00                    -9.6892E+05                     3.7057E+05                    -3.5088E+06                     3.7057E+05                     6.6391E-02                     6.2536E-01                     6.2090E-01                     6.3020E-01                     0.0000E+00                     0.0000E+00                     0.0000E+00                     0.0000E+00                     0.0000E+00                     0.0000E+00                     0.0000E+00                     0.0000E+00                     0.0000E+00                     0.0000E+00                     0.0000E+00                     0.0000E+00                     0.0000E+00                     0.0000E+00                     0.0000E+00                     0.0000E+00                     0.0000E+00                     0.0000E+00                     0.0000E+00                     0.0000E+00                     0.0000E+00                     0.0000E+00                     0.0000E+00                     0.0000E+00
    0.2250                    -1.1369E-01                     6.5994E+05                     1.6824E-01                     5.2639E+07                     9.8768E+00                    -1.0197E+07                     8.4800E+00                     1.9119E+05                     1.9806E+04                     4.4043E+05                     1.9806E+04                    -4.0044E-02                     1.3712E-01                    -3.1836E-02                     1.0300E-01                    -6.4476E+04                     2.6736E+05                     4.5239E+04                     2.6736E+05                    -3.1168E-01                     2.6618E+00                    -7.7044E-01                     3.6097E+00                    -9.6237E+05                     2.5467E+05                    -3.5757E+06                     2.5467E+05                     6.6697E-02                     6.2762E-01                     6.1992E-01                     6.3245E-01                     0.0000E+00                     0.0000E+00                     0.0000E+00                     0.0000E+00                     0.0000E+00                     0.0000E+00                     0.0000E+00                     0.0000E+00                     0.0000E+00                     0.0000E+00                     0.0000E+00                     0.0000E+00                     0.0000E+00                     0.0000E+00                     0.0000E+00                     0.0000E+00                     0.0000E+00                     0.0000E+00                     0.0000E+00                     0.0000E+00                     0.0000E+00                     0.0000E+00                     0.0000E+00                     0.0000E+00
    0.2375                    -1.0888E-01                     6.8483E+05                     1.6871E-01                     5.2632E+07                     9.9075E+00                    -1.0486E+07                     8.4109E+00                     1.9013E+05                     2.9249E+04                     4.4740E+05                     2.9249E+04                    -3.9990E-02                     1.3748E-01                    -3.2269E-02                     1.0349E-01                    -6.4601E+04                     2.6480E+05                     4.2920E+04                     2.6479E+05                    -3.1371E-01                     2.6759E+00                    -7.6744E-01                     3.6253E+00                    -9.5581E+05                     1.3877E+05                    -3.6425E+06                     1.3877E+05                     6.7003E-02                     6.2988E-01                     6.1894E-01                     6.3469E-01                     0.0000E+00                     0.0000E+00                     0.0000E+00                     0.0000E+00                     0.0000E+00                     0.0000E+00                     0.0000E+00                     0.0000E+00                     0.0000E+00                     0.0000E+00                     0.0000E+00                     0.0000E+00                     0.0000E+00                     0.0000E+00                     0.0000E+00                     0.0000E+00                     0.0000E+00                     0.0000E+00                     0.0000E+00                     0.0000E+00                     0.0000E+00                     0.0000E+00                     0.0000E+00                     0.0000E+00
    0.2500                    -1.0408E-01                     7.0972E+05                     1.6917E-01                     5.2624E+07                     9.1570E+00                    -1.0775E+07                     8.3418E+00                     1.8907E+05                     3.8692E+04                     4.5437E+05                     3.8692E+04                    -3.9936E-02                     1.3784E-01                    -3.2703E-02                     1.0397E-01                    -6.4726E+04                     2.6223E+05                     4.0601E+04                     2.6223E+05                    -3.1574E-01                     2.6899E+00                    -7.6443E-01                     3.6410E+00                    -9.4925E+05                     2.2870E+04                    -3.7093E+06                     2.2871E+04                     6.7309E-02                     6.3214E-01                     6.1796E-01                     6.3693E-01                     0.0000E+00                     0.0000E+00                     0.0000E+00                     0.0000E+00                     0.0000E+00                     0.0000E+00                     0.0000E+00                     0.0000E+00                     0.0000E+00                     0.0000E+00                     0.0000E+00                     0.0000E+00                     0.0000E+00                     0.0000E+00                     0.0000E+00                     0.0000E+00                     0.0000E+00                     0.0000E+00                     0.0000E+00                     0.0000E+00                     0.0000E+00                     0.0000E+00                     0.0000E+00                     0.0000E+00
    0.2625                    -9.9272E-02                     7.3460E+05                     1.6964E-01                     5.2617E+07                     1.0360E+01                    -1.1064E+07                     8.3703E+00                     1.8801E+05                     4.8135E+04                     4.6134E+05                     4.8135E+04                    -3.9882E-02                     1.3820E-01                    -3.3136E-02                     1.0445E-01                    -6.4851E+04                     2.5967E+05                     3.8282E+04                     2.5967E+05                    -3.1777E-01                     2.7040E+00                    -7.6142E-01                     3.6566E+00                    -9.4270E+05                    -9.3028E+04                    -3.7762E+06                    -9.3027E+04                     6.7615E-02                     6.3440E-01                     6.1698E-01                     6.3918E-01                     0.0000E+00                     0.0000E+00                     0.0000E+00                     0.0000E+00                     0.0000E+00                     0.0000E+00                     0.0000E+00                     0.0000E+00                     0.0000E+00                     0.0000E+00                     0.0000E+00                     0.0000E+00                     0.0000E+00                     0.0000E+00                     0.0000E+00                     0.0000E+00                     0.0000E+00                     0.0000E+00                     0.0000E+00                     0.0000E+00                     0.0000E+00                     0.0000E+00                     0.0000E+00                     0.0000E+00
    0.2750                    -9.4467E-02                     7.5948E+05                     1.7011E-01                     5.2610E+07                     1.0390E+01                    -1.1352E+07                     8.3989E+00                     1.8695E+05                     5.7578E+04                     4.6831E+05                     5.7578E+04                    -3.9828E-02                     1.3857E-01                    -3.3570E-02                     1.0494E-01                    -6.4975E+04                     2.5711E+05                     3.5963E+04                     2.5711E+05                    -3.1980E-01                     2.7181E+00                    -7.5841E-01                     3.6723E+00                    -9.3614E+05                    -2.0893E+05                    -3.8430E+06                    -2.0893E+05                     6.7921E-02                     6.3666E-01                     6.1600E-01                     6.4142E-01                     0.0000E+00                     0.0000E+00                     0.0000E+00                     0.0000E+00                     0.0000E+00                     0.0000E+00                     0.0000E+00                     0.0000E+00                     0.0000E+00                     0.0000E+00                     0.0000E+00                     0.0000E+00                     0.0000E+00                     0.0000E+00                     0.0000E+00                     0.0000E+00                     0.0000E+00                     0.0000E+00                     0.0000E+00                     0.0000E+00                     0.0000E+00                     0.0000E+00                     0.0000E+00                     0.0000E+00
    0.2875                    -8.9661E-02                     7.8436E+05                     1.7057E-01                     5.2602E+07                     1.0421E+01                    -1.1641E+07                     8.2321E+00                     1.8589E+05                     6.7021E+04                     4.7528E+05                     6.7021E+04                    -3.9775E-02                     1.3893E-01                    -3.4003E-02                     1.0542E-01                    -6.5100E+04                     2.5455E+05                     3.3644E+04                     2.5455E+05                    -3.2183E-01                     2.7322E+00                    -7.5541E-01                     3.6879E+00                    -9.2958E+05                    -3.2482E+05                    -3.9098E+06                    -3.2482E+05                     6.8227E-02                     6.3892E-01                     6.1502E-01                     6.4366E-01                     0.0000E+00                     0.0000E+00                     0.0000E+00                     0.0000E+00                     0.0000E+00                     0.0000E+00                     0.0000E+00                     0.0000E+00                     0.0000E+00                     0.0000E+00                     0.0000E+00                     0.0000E+00                     0.0000E+00                     0.0000E+00                     0.0000E+00                     0.0000E+00                     0.0000E+00                     0.0000E+00                     0.0000E+00                     0.0000E+00                     0.0000E+00                     0.0000E+00                     0.0000E+00                     0.0000E+00
    0.3000                    -8.4856E-02                     8.0924E+05                     1.7104E-01                     5.2595E+07                     1.0452E+01                    -1.1929E+07                     8.2607E+00                     1.8483E+05                     7.6464E+04                     4.8225E+05                     7.6464E+04                    -3.9721E-02                     1.3929E-01                    -3.4436E-02                     1.0591E-01                    -6.5225E+04                     2.5199E+05                     3.1325E+04                     2.5198E+05                    -3.2386E-01                     2.7463E+00                    -7.5240E-01                     3.7036E+00                    -9.2303E+05                    -4.4072E+05                    -3.9767E+06                    -4.4072E+05                     6.8533E-02                     6.4118E-01                     6.1404E-01                     6.4591E-01                     0.0000E+00                     0.0000E+00                     0.0000E+00                     0.0000E+00                     0.0000E+00                     0.0000E+00                     0.0000E+00                     0.0000E+00                     0.0000E+00                     0.0000E+00                     0.0000E+00                     0.0000E+00                     0.0000E+00                     0.0000E+00                     0.0000E+00                     0.0000E+00                     0.0000E+00                     0.0000E+00                     0.0000E+00                     0.0000E+00                     0.0000E+00                     0.0000E+00                     0.0000E+00                     0.0000E+00
    0.3125                    -8.0051E-02                     8.3412E+05                     1.7151E-01                     5.2587E+07                     1.0873E+01                    -1.2218E+07                     8.2892E+00                     1.8377E+05                     8.5907E+04                     4.8921E+05                     8.5907E+04                    -3.9667E-02                     1.3965E-01                    -3.4870E-02                     1.0639E-01                    -6.5350E+04                     2.4942E+05                     2.9006E+04                     2.4942E+05                    -3.2589E-01                     2.7604E+00                    -7.4939E-01                     3.7192E+00                    -9.1647E+05                    -5.5662E+05                    -4.0435E+06                    -5.5662E+05                     6.8839E-02                     6.4345E-01                     6.1306E-01                     6.4815E-01                     0.0000E+00                     0.0000E+00                     0.0000E+00                     0.0000E+00                     0.0000E+00                     0.0000E+00                     0.0000E+00                     0.0000E+00                     0.0000E+00                     0.0000E+00                     0.0000E+00                     0.0000E+00                     0.0000E+00                     0.0000E+00                     0.0000E+00                     0.0000E+00                     0.0000E+00                     0.0000E+00                     0.0000E+00                     0.0000E+00                     0.0000E+00                     0.0000E+00                     0.0000E+00                     0.0000E+00
    0.3250                    -7.5245E-02                     8.5900E+05                     1.7197E-01                     5.2580E+07                     1.0904E+01                    -1.2506E+07                     8.1225E+00                     1.8271E+05                     9.5350E+04                     4.9618E+05                     9.5350E+04                    -3.9613E-02                     1.4001E-01                    -3.5303E-02                     1.0688E-01                    -6.5474E+04                     2.4686E+05                     2.6687E+04                     2.4686E+05                    -3.2792E-01                     2.7744E+00                    -7.4639E-01                     3.7349E+00                    -9.0991E+05                    -6.7252E+05                    -4.1103E+06                    -6.7252E+05                     6.9145E-02                     6.4571E-01                     6.1208E-01                     6.5039E-01                     0.0000E+00                     0.0000E+00                     0.0000E+00                     0.0000E+00                     0.0000E+00                     0.0000E+00                     0.0000E+00                     0.0000E+00                     0.0000E+00                     0.0000E+00                     0.0000E+00                     0.0000E+00                     0.0000E+00                     0.0000E+00                     0.0000E+00                     0.0000E+00                     0.0000E+00                     0.0000E+00                     0.0000E+00                     0.0000E+00                     0.0000E+00                     0.0000E+00                     0.0000E+00                     0.0000E+00
    0.3375                    -7.0440E-02                     8.8387E+05                     1.7244E-01                     5.2573E+07                     1.0934E+01                    -1.2794E+07                     8.1510E+00                     1.8165E+05                     1.0479E+05                     5.0315E+05                     1.0479E+05                    -3.9559E-02                     1.4037E-01                    -3.5736E-02                     1.0736E-01                    -6.5599E+04                     2.4430E+05                     2.4368E+04                     2.4430E+05                    -3.2995E-01                     2.7885E+00                    -7.4338E-01                     3.7505E+00                    -9.0336E+05                    -7.8842E+05                    -4.1772E+06                    -7.8842E+05                     6.9451E-02                     6.4797E-01                     6.1110E-01                     6.5264E-01                     0.0000E+00                     0.0000E+00                     0.0000E+00                     0.0000E+00                     0.0000E+00                     0.0000E+00                     0.0000E+00                     0.0000E+00                     0.0000E+00                     0.0000E+00                     0.0000E+00                     0.0000E+00                     0.0000E+00                     0.0000E+00                     0.0000E+00                     0.0000E+00                     0.0000E+00                     0.0000E+00                     0.0000E+00                     0.0000E+00                     0.0000E+00                     0.0000E+00                     0.0000E+00                     0.0000E+00
    0.3500                    -6.5635E-02                     9.0874E+05                     1.7290E-01                     5.2565E+07                     1.1356E+01                    -1.3082E+07                     8.3749E+00                     1.8060E+05                     1.1424E+05                     5.1012E+05                     1.1424E+05                    -3.9505E-02                     1.4074E-01                    -3.6170E-02                     1.0785E-01                    -6.5724E+04                     2.4174E+05                     2.2049E+04                     2.4174E+05                    -3.3198E-01                     2.8026E+00                    -7.4037E-01                     3.7661E+00                    -8.9680E+05                    -9.0432E+05                    -4.2440E+06                    -9.0431E+05                     6.9757E-02                     6.5023E-01                     6.1012E-01                     6.5488E-01                     0.0000E+00                     0.0000E+00                     0.0000E+00                     0.0000E+00                     0.0000E+00                     0.0000E+00                     0.0000E+00                     0.0000E+00                     0.0000E+00                     0.0000E+00                     0.0000E+00                     0.0000E+00                     0.0000E+00                     0.0000E+00                     0.0000E+00                     0.0000E+00                     0.0000E+00                     0.0000E+00                     0.0000E+00                     0.0000E+00                     0.0000E+00                     0.0000E+00                     0.0000E+00                     0.0000E+00
    0.3625                    -6.0829E-02                     9.3362E+05                     1.7337E-01                     5.2558E+07                     1.1777E+01                    -1.3370E+07                     8.0128E+00                     1.7954E+05                     1.2368E+05                     5.1709E+05                     1.2368E+05                    -3.9452E-02                     1.4110E-01                    -3.6603E-02                     1.0833E-01                    -6.5848E+04                     2.3918E+05                     1.9730E+04                     2.3918E+05                    -3.3401E-01                     2.8167E+00                    -7.3736E-01                     3.7818E+00                    -8.9024E+05                    -1.0202E+06                    -4.3108E+06                    -1.0202E+06                     7.0063E-02                     6.5249E-01                     6.0914E-01                     6.5712E-01                     0.0000E+00                     0.0000E+00                     0.0000E+00                     0.0000E+00                     0.0000E+00                     0.0000E+00                     0.0000E+00                     0.0000E+00                     0.0000E+00                     0.0000E+00                     0.0000E+00                     0.0000E+00                     0.0000E+00                     0.0000E+00                     0.0000E+00                     0.0000E+00                     0.0000E+00                     0.0000E+00                     0.0000E+00                     0.0000E+00                     0.0000E+00                     0.0000E+00                     0.0000E+00                     0.0000E+00
    0.3750                    -5.6024E-02                     9.5849E+05                     1.7384E-01                     5.2550E+07                     1.1808E+01                    -1.3658E+07                     8.2367E+00                     1.7848E+05                     1.3312E+05                     5.2406E+05                     1.3312E+05                    -3.9398E-02                     1.4146E-01                    -3.7037E-02                     1.0881E-01                    -6.5973E+04                     2.3661E+05                     1.7411E+04                     2.3661E+05                    -3.3604E-01                     2.8308E+00                    -7.3436E-01                     3.7974E+00                    -8.8368E+05                    -1.1361E+06                    -4.3776E+06                    -1.1361E+06                     7.0368E-02                     6.5475E-01                     6.0816E-01                     6.5937E-01                     0.0000E+00                     0.0000E+00                     0.0000E+00                     0.0000E+00                     0.0000E+00                     0.0000E+00                     0.0000E+00                     0.0000E+00                     0.0000E+00                     0.0000E+00                     0.0000E+00                     0.0000E+00                     0.0000E+00                     0.0000E+00                     0.0000E+00                     0.0000E+00                     0.0000E+00                     0.0000E+00                     0.0000E+00                     0.0000E+00                     0.0000E+00                     0.0000E+00                     0.0000E+00                     0.0000E+00
    0.3875                    -5.1219E-02                     9.8336E+05                     1.7430E-01                     5.2543E+07                     1.2229E+01                    -1.3946E+07                     8.6558E+00                     1.7742E+05                     1.4256E+05                     5.3102E+05                     1.4256E+05                    -3.9344E-02                     1.4182E-01                    -3.7470E-02                     1.0930E-01                    -6.6098E+04                     2.3405E+05                     1.5092E+04                     2.3405E+05                    -3.3807E-01                     2.8449E+00                    -7.3135E-01                     3.8131E+00                    -8.7713E+05                    -1.2520E+06                    -4.4445E+06                    -1.2520E+06                     7.0674E-02                     6.5701E-01                     6.0718E-01                     6.6161E-01                     0.0000E+00                     0.0000E+00                     0.0000E+00                     0.0000E+00                     0.0000E+00                     0.0000E+00                     0.0000E+00                     0.0000E+00                     0.0000E+00                     0.0000E+00                     0.0000E+00                     0.0000E+00                     0.0000E+00                     0.0000E+00                     0.0000E+00                     0.0000E+00                     0.0000E+00                     0.0000E+00                     0.0000E+00                     0.0000E+00                     0.0000E+00                     0.0000E+00                     0.0000E+00                     0.0000E+00
    0.4000                    -4.6414E-02                     1.0082E+06                     1.7477E-01                     5.2535E+07                     1.2260E+01                    -1.4234E+07                     8.2938E+00                     1.7636E+05                     1.5201E+05                     5.3799E+05                     1.5201E+05                    -3.9290E-02                     1.4218E-01                    -3.7903E-02                     1.0978E-01                    -6.6223E+04                     2.3149E+05                     1.2774E+04                     2.3149E+05                    -3.4010E-01                     2.8589E+00                    -7.2834E-01                     3.8287E+00                    -8.7057E+05                    -1.3679E+06                    -4.5113E+06                    -1.3679E+06                     7.0980E-02                     6.5927E-01                     6.0620E-01                     6.6385E-01                     0.0000E+00                     0.0000E+00                     0.0000E+00                     0.0000E+00                     0.0000E+00                     0.0000E+00                     0.0000E+00                     0.0000E+00                     0.0000E+00                     0.0000E+00                     0.0000E+00                     0.0000E+00                     0.0000E+00                     0.0000E+00                     0.0000E+00                     0.0000E+00                     0.0000E+00                     0.0000E+00                     0.0000E+00                     0.0000E+00                     0.0000E+00                     0.0000E+00                     0.0000E+00                     0.0000E+00
    0.4125                    -4.2423E-02                     1.0291E+06                     1.7538E-01                     5.2527E+07                     1.1897E+01                    -1.4475E+07                     8.3229E+00                     1.7448E+05                     1.6079E+05                     5.4305E+05                     1.6079E+05                    -3.9193E-02                     1.4258E-01                    -3.8349E-02                     1.1034E-01                    -6.6325E+04                     2.2861E+05                     1.0442E+04                     2.2861E+05                    -3.4188E-01                     2.8719E+00                    -7.2613E-01                     3.8434E+00                    -8.6024E+05                    -1.4730E+06                    -4.5657E+06                    -1.4730E+06                     7.1212E-02                     6.6104E-01                     6.0495E-01                     6.6560E-01                     0.0000E+00                     0.0000E+00                     0.0000E+00                     0.0000E+00                     0.0000E+00                     0.0000E+00                     0.0000E+00                     0.0000E+00                     0.0000E+00                     0.0000E+00                     0.0000E+00                     0.0000E+00                     0.0000E+00                     0.0000E+00                     0.0000E+00                     0.0000E+00                     0.0000E+00                     0.0000E+00                     0.0000E+00                     0.0000E+00                     0.0000E+00                     0.0000E+00                     0.0000E+00                     0.0000E+00
    0.4250                    -3.8432E-02                     1.0499E+06                     1.7598E-01                     5.2519E+07                     1.2316E+01                    -1.4717E+07                     8.3521E+00                     1.7260E+05                     1.6958E+05                     5.4811E+05                     1.6958E+05                    -3.9096E-02                     1.4298E-01                    -3.8796E-02                     1.1089E-01                    -6.6427E+04                     2.2572E+05                     8.1105E+03                     2.2572E+05                    -3.4367E-01                     2.8849E+00                    -7.2391E-01                     3.8580E+00                    -8.4991E+05                    -1.5782E+06                    -4.6201E+06                    -1.5782E+06                     7.1443E-02                     6.6281E-01                     6.0370E-01                     6.6735E-01                     0.0000E+00                     0.0000E+00                     0.0000E+00                     0.0000E+00                     0.0000E+00                     0.0000E+00                     0.0000E+00                     0.0000E+00                     0.0000E+00                     0.0000E+00                     0.0000E+00                     0.0000E+00                     0.0000E+00                     0.0000E+00                     0.0000E+00                     0.0000E+00                     0.0000E+00                     0.0000E+00                     0.0000E+00                     0.0000E+00                     0.0000E+00                     0.0000E+00                     0.0000E+00                     0.0000E+00
    0.4375                    -3.4441E-02                     1.0708E+06                     1.7659E-01                     5.2511E+07                     1.2344E+01                    -1.4958E+07                     8.7719E+00                     1.7073E+05                     1.7836E+05                     5.5317E+05                     1.7836E+05                    -3.8998E-02                     1.4338E-01                    -3.9242E-02                     1.1145E-01                    -6.6529E+04                     2.2284E+05                     5.7789E+03                     2.2284E+05                    -3.4546E-01                     2.8979E+00                    -7.2170E-01                     3.8726E+00                    -8.3958E+05                    -1.6833E+06                    -4.6745E+06                    -1.6833E+06                     7.1674E-02                     6.6458E-01                     6.0246E-01                     6.6910E-01                     0.0000E+00                     0.0000E+00                     0.0000E+00                     0.0000E+00                     0.0000E+00                     0.0000E+00                     0.0000E+00                     0.0000E+00                     0.0000E+00                     0.0000E+00                     0.0000E+00                     0.0000E+00                     0.0000E+00                     0.0000E+00                     0.0000E+00                     0.0000E+00                     0.0000E+00                     0.0000E+00                     0.0000E+00                     0.0000E+00                     0.0000E+00                     0.0000E+00                     0.0000E+00                     0.0000E+00
    0.4500                    -3.0450E-02                     1.0916E+06                     1.7719E-01                     5.2503E+07                     1.2372E+01                    -1.5199E+07                     8.8010E+00                     1.6885E+05                     1.8714E+05                     5.5824E+05                     1.8714E+05                    -3.8901E-02                     1.4378E-01                    -3.9688E-02                     1.1201E-01                    -6.6631E+04                     2.1996E+05                     3.4474E+03                     2.1996E+05                    -3.4724E-01                     2.9109E+00                    -7.1948E-01                     3.8873E+00                    -8.2924E+05                    -1.7884E+06                    -4.7289E+06                    -1.7884E+06                     7.1906E-02                     6.6635E-01                     6.0121E-01                     6.7085E-01                     0.0000E+00                     0.0000E+00                     0.0000E+00                     0.0000E+00                     0.0000E+00                     0.0000E+00                     0.0000E+00                     0.0000E+00                     0.0000E+00                     0.0000E+00                     0.0000E+00                     0.0000E+00                     0.0000E+00                     0.0000E+00                     0.0000E+00                     0.0000E+00                     0.0000E+00                     0.0000E+00                     0.0000E+00                     0.0000E+00                     0.0000E+00                     0.0000E+00                     0.0000E+00                     0.0000E+00
    0.4625                    -2.6459E-02                     1.1124E+06                     1.7780E-01                     5.2495E+07                     1.2400E+01                    -1.5440E+07                     8.8302E+00                     1.6697E+05                     1.9593E+05                     5.6330E+05                     1.9593E+05                    -3.8804E-02                     1.4418E-01                    -4.0134E-02                     1.1256E-01                    -6.6734E+04                     2.1707E+05                     1.1158E+03                     2.1707E+05                    -3.4903E-01                     2.9239E+00                    -7.1726E-01                     3.9019E+00                    -8.1891E+05                    -1.8935E+06                    -4.7832E+06                    -1.8935E+06                     7.2137E-02                     6.6812E-01                     5.9996E-01                     6.7260E-01                     0.0000E+00                     0.0000E+00                     0.0000E+00                     0.0000E+00                     0.0000E+00                     0.0000E+00                     0.0000E+00                     0.0000E+00                     0.0000E+00                     0.0000E+00                     0.0000E+00                     0.0000E+00                     0.0000E+00                     0.0000E+00                     0.0000E+00                     0.0000E+00                     0.0000E+00                     0.0000E+00                     0.0000E+00                     0.0000E+00                     0.0000E+00                     0.0000E+00                     0.0000E+00                     0.0000E+00
    0.4750                    -2.2468E-02                     1.1333E+06                     1.7841E-01                     5.2487E+07                     1.2428E+01                    -1.5680E+07                     9.2500E+00                     1.6509E+05                     2.0471E+05                     5.6836E+05                     2.0471E+05                    -3.8707E-02                     1.4458E-01                    -4.0580E-02                     1.1312E-01                    -6.6836E+04                     2.1419E+05                    -1.2157E+03                     2.1419E+05                    -3.5081E-01                     2.9369E+00                    -7.1505E-01                     3.9165E+00                    -8.0858E+05                    -1.9987E+06                    -4.8376E+06                    -1.9987E+06                     7.2368E-02                     6.6989E-01                     5.9872E-01                     6.7435E-01                     0.0000E+00                     0.0000E+00                     0.0000E+00                     0.0000E+00                     0.0000E+00                     0.0000E+00                     0.0000E+00                     0.0000E+00                     0.0000E+00                     0.0000E+00                     0.0000E+00                     0.0000E+00                     0.0000E+00                     0.0000E+00                     0.0000E+00                     0.0000E+00                     0.0000E+00                     0.0000E+00                     0.0000E+00                     0.0000E+00                     0.0000E+00                     0.0000E+00                     0.0000E+00                     0.0000E+00
    0.4875                    -1.8477E-02                     1.1541E+06                     1.7901E-01                     5.2479E+07                     1.2456E+01                    -1.5921E+07                     8.8885E+00                     1.6322E+05                     2.1349E+05                     5.7342E+05                     2.1349E+05                    -3.8609E-02                     1.4498E-01                    -4.1026E-02                     1.1367E-01                    -6.6938E+04                     2.1131E+05                    -3.5472E+03                     2.1131E+05                    -3.5260E-01                     2.9499E+00                    -7.1283E-01                     3.9312E+00                    -7.9825E+05                    -2.1038E+06                    -4.8920E+06                    -2.1038E+06                     7.2600E-02                     6.7165E-01                     5.9747E-01                     6.7610E-01                     0.0000E+00                     0.0000E+00                     0.0000E+00                     0.0000E+00                     0.0000E+00                     0.0000E+00                     0.0000E+00                     0.0000E+00                     0.0000E+00                     0.0000E+00                     0.0000E+00                     0.0000E+00                     0.0000E+00                     0.0000E+00                     0.0000E+00                     0.0000E+00                     0.0000E+00                     0.0000E+00                     0.0000E+00                     0.0000E+00                     0.0000E+00                     0.0000E+00                     0.0000E+00                     0.0000E+00
    0.5000                    -1.4486E-02                     1.1749E+06                     1.7962E-01                     5.2471E+07                     1.2484E+01                    -1.6162E+07                     9.3083E+00                     1.6134E+05                     2.2228E+05                     5.7848E+05                     2.2228E+05                    -3.8512E-02                     1.4537E-01                    -4.1472E-02                     1.1423E-01                    -6.7040E+04                     2.0842E+05                    -5.8788E+03                     2.0842E+05                    -3.5439E-01                     2.9629E+00                    -7.1062E-01                     3.9458E+00                    -7.8792E+05                    -2.2089E+06                    -4.9464E+06                    -2.2089E+06                     7.2831E-02                     6.7342E-01                     5.9622E-01                     6.7785E-01                     0.0000E+00                     0.0000E+00                     0.0000E+00                     0.0000E+00                     0.0000E+00                     0.0000E+00                     0.0000E+00                     0.0000E+00                     0.0000E+00                     0.0000E+00                     0.0000E+00                     0.0000E+00                     0.0000E+00                     0.0000E+00                     0.0000E+00                     0.0000E+00                     0.0000E+00                     0.0000E+00                     0.0000E+00                     0.0000E+00                     0.0000E+00                     0.0000E+00                     0.0000E+00                     0.0000E+00
    0.5125                    -1.0495E-02                     1.1958E+06                     1.8022E-01                     5.2463E+07                     1.2512E+01                    -1.6403E+07                     9.7281E+00                     1.5946E+05                     2.3106E+05                     5.8354E+05                     2.3106E+05                    -3.8415E-02                     1.4577E-01                    -4.1918E-02                     1.1478E-01                    -6.7143E+04                     2.0554E+05                    -8.2103E+03                     2.0554E+05                    -3.5617E-01                     2.9758E+00                    -7.0840E-01                     3.9604E+00                    -7.7759E+05                    -2.3140E+06                    -5.0008E+06                    -2.3140E+06                     7.3062E-02                     6.7519E-01                     5.9498E-01                     6.7960E-01                     0.0000E+00                     0.0000E+00                     0.0000E+00                     0.0000E+00                     0.0000E+00                     0.0000E+00                     0.0000E+00                     0.0000E+00                     0.0000E+00                     0.0000E+00                     0.0000E+00                     0.0000E+00                     0.0000E+00                     0.0000E+00                     0.0000E+00                     0.0000E+00                     0.0000E+00                     0.0000E+00                     0.0000E+00                     0.0000E+00                     0.0000E+00                     0.0000E+00                     0.0000E+00                     0.0000E+00
    0.5250                    -6.5038E-03                     1.2166E+06                     1.8083E-01                     5.2455E+07                     1.2540E+01                    -1.6643E+07                     9.7573E+00                     1.5759E+05                     2.3984E+05                     5.8860E+05                     2.3984E+05                    -3.8318E-02                     1.4617E-01                    -4.2365E-02                     1.1534E-01                    -6.7245E+04                     2.0266E+05                    -1.0542E+04                     2.0266E+05                    -3.5796E-01                     2.9888E+00                    -7.0619E-01                     3.9751E+00                    -7.6726E+05                    -2.4192E+06                    -5.0552E+06                    -2.4192E+06                     7.3293E-02                     6.7696E-01                     5.9373E-01                     6.8135E-01                     0.0000E+00                     0.0000E+00                     0.0000E+00                     0.0000E+00                     0.0000E+00                     0.0000E+00                     0.0000E+00                     0.0000E+00                     0.0000E+00                     0.0000E+00                     0.0000E+00                     0.0000E+00                     0.0000E+00                     0.0000E+00                     0.0000E+00                     0.0000E+00                     0.0000E+00                     0.0000E+00                     0.0000E+00                     0.0000E+00                     0.0000E+00                     0.0000E+00                     0.0000E+00                     0.0000E+00
    0.5375                    -2.5128E-03                     1.2374E+06                     1.8144E-01                     5.2446E+07                     1.2568E+01                    -1.6884E+07                     9.7864E+00                     1.5571E+05                     2.4863E+05                     5.9366E+05                     2.4863E+05                    -3.8220E-02                     1.4657E-01                    -4.2811E-02                     1.1590E-01                    -6.7347E+04                     1.9977E+05                    -1.2873E+04                     1.9977E+05                    -3.5974E-01                     3.0018E+00                    -7.0397E-01                     3.9897E+00                    -7.5692E+05                    -2.5243E+06                    -5.1096E+06                    -2.5243E+06                     7.3525E-02                     6.7873E-01                     5.9248E-01                     6.8309E-01                     0.0000E+00                     0.0000E+00                     0.0000E+00                     0.0000E+00                     0.0000E+00                     0.0000E+00                     0.0000E+00                     0.0000E+00                     0.0000E+00                     0.0000E+00                     0.0000E+00                     0.0000E+00                     0.0000E+00                     0.0000E+00                     0.0000E+00                     0.0000E+00                     0.0000E+00                     0.0000E+00                     0.0000E+00                     0.0000E+00                     0.0000E+00                     0.0000E+00                     0.0000E+00                     0.0000E+00
[...]
    1.1125                     8.1720E-02                     1.8462E+06                     2.1667E-01                     5.2060E+07                     1.4832E+01                    -2.3818E+07                     1.2940E+01                     2.3553E+04                     5.7933E+05                     6.6888E+05                     5.7933E+05                    -3.1852E-02                     1.6502E-01                    -6.0273E-02                     1.4377E-01                    -7.0537E+04                     5.6454E+04                    -1.1164E+05                     5.6454E+04                    -4.2057E-01                     3.5139E+00                    -6.6359E-01                     4.5898E+00                    -9.0110E+04                    -6.2537E+06                    -6.4824E+06                    -6.2537E+06                     7.7458E-02                     7.2713E-01                     5.2082E-01                     7.3040E-01                     0.0000E+00                     0.0000E+00                     0.0000E+00                     0.0000E+00                     0.0000E+00                     0.0000E+00                     0.0000E+00                     0.0000E+00                     0.0000E+00                     0.0000E+00                     0.0000E+00                     0.0000E+00                     0.0000E+00                     0.0000E+00                     0.0000E+00                     0.0000E+00                     0.0000E+00                     0.0000E+00                     0.0000E+00                     0.0000E+00                     0.0000E+00                     0.0000E+00                     0.0000E+00                     0.0000E+00
    1.1250                     8.1452E-02                     1.8528E+06                     2.1752E-01                     5.2052E+07                     1.4852E+01                    -2.3891E+07                     1.2962E+01                     2.0090E+04                     5.8491E+05                     6.6768E+05                     5.8491E+05                    -3.1694E-02                     1.6539E-01                    -6.0556E-02                     1.4438E-01                    -7.0580E+04                     5.3297E+04                    -1.1355E+05                     5.3297E+04                    -4.2148E-01                     3.5234E+00                    -6.6380E-01                     4.6015E+00                    -7.3421E+04                    -6.3120E+06                    -6.4908E+06                    -6.3120E+06                     7.7415E-02                     7.2763E-01                     5.1907E-01                     7.3087E-01                     0.0000E+00                     0.0000E+00                     0.0000E+00                     0.0000E+00                     0.0000E+00                     0.0000E+00                     0.0000E+00                     0.0000E+00                     0.0000E+00                     0.0000E+00                     0.0000E+00                     0.0000E+00                     0.0000E+00                     0.0000E+00                     0.0000E+00                     0.0000E+00                     0.0000E+00                     0.0000E+00                     0.0000E+00                     0.0000E+00                     0.0000E+00                     0.0000E+00                     0.0000E+00                     0.0000E+00
    1.1375                     8.1184E-02                     1.8595E+06                     2.1836E-01                     5.2043E+07                     1.4872E+01                    -2.3963E+07                     1.1421E+01                     1.6627E+04                     5.9049E+05                     6.6648E+05                     5.9049E+05                    -3.1537E-02                     1.6575E-01                    -6.0839E-02                     1.4499E-01                    -7.0622E+04                     5.0140E+04                    -1.1546E+05                     5.0140E+04                    -4.2238E-01                     3.5330E+00                    -6.6400E-01                     4.6132E+00                    -5.6733E+04                    -6.3702E+06                    -6.4993E+06                    -6.3702E+06                     7.7372E-02                     7.2813E-01                     5.1731E-01                     7.3134E-01                     0.0000E+00                     0.0000E+00                     0.0000E+00                     0.0000E+00                     0.0000E+00                     0.0000E+00                     0.0000E+00                     0.0000E+00                     0.0000E+00                     0.0000E+00                     0.0000E+00                     0.0000E+00                     0.0000E+00                     0.0000E+00                     0.0000E+00                     0.0000E+00                     0.0000E+00                     0.0000E+00                     0.0000E+00                     0.0000E+00                     0.0000E+00                     0.0000E+00                     0.0000E+00                     0.0000E+00
    1.1500                     8.0916E-02                     1.8661E+06                     2.1921E-01                     5.2035E+07                     1.4990E+01                    -2.4036E+07                     1.3004E+01                     1.3164E+04                     5.9607E+05                     6.6529E+05                     5.9607E+05                    -3.1380E-02                     1.6612E-01                    -6.1123E-02                     1.4559E-01                    -7.0665E+04                     4.6983E+04                    -1.1737E+05                     4.6983E+04                    -4.2329E-01                     3.5425E+00                    -6.6420E-01                     4.6249E+00                    -4.0044E+04                    -6.4285E+06                    -6.5077E+06                    -6.4285E+06                     7.7330E-02                     7.2863E-01                     5.1556E-01                     7.3181E-01                     0.0000E+00                     0.0000E+00                     0.0000E+00                     0.0000E+00                     0.0000E+00                     0.0000E+00                     0.0000E+00                     0.0000E+00                     0.0000E+00                     0.0000E+00                     0.0000E+00                     0.0000E+00                     0.0000E+00                     0.0000E+00                     0.0000E+00                     0.0000E+00                     0.0000E+00                     0.0000E+00                     0.0000E+00                     0.0000E+00                     0.0000E+00                     0.0000E+00                     0.0000E+00                     0.0000E+00
    1.1625                     8.0648E-02                     1.8727E+06                     2.2006E-01                     5.2027E+07                     1.5010E+01                    -2.4109E+07                     1.1463E+01                     9.7009E+03                     6.0165E+05                     6.6409E+05                     6.0165E+05                    -3.1223E-02                     1.6649E-01                    -6.1406E-02                     1.4620E-01                    -7.0708E+04                     4.3826E+04                    -1.1927E+05                     4.3826E+04                    -4.2420E-01                     3.5520E+00                    -6.6441E-01                     4.6366E+00                    -2.3355E+04                    -6.4867E+06                    -6.5161E+06                    -6.4867E+06                     7.7287E-02                     7.2913E-01                     5.1381E-01                     7.3228E-01                     0.0000E+00                     0.0000E+00                     0.0000E+00                     0.0000E+00                     0.0000E+00                     0.0000E+00                     0.0000E+00                     0.0000E+00                     0.0000E+00                     0.0000E+00                     0.0000E+00                     0.0000E+00                     0.0000E+00                     0.0000E+00                     0.0000E+00                     0.0000E+00                     0.0000E+00                     0.0000E+00                     0.0000E+00                     0.0000E+00                     0.0000E+00                     0.0000E+00                     0.0000E+00                     0.0000E+00
    1.1750                     8.0380E-02                     1.8793E+06                     2.2091E-01                     5.2018E+07                     1.5030E+01                    -2.4181E+07                     1.3047E+01                     6.2380E+03                     6.0723E+05                     6.6289E+05                     6.0723E+05                    -3.1065E-02                     1.6685E-01                    -6.1690E-02                     1.4681E-01                    -7.0751E+04                     4.0669E+04                    -1.2118E+05                     4.0669E+04                    -4.2510E-01                     3.5615E+00                    -6.6461E-01                     4.6483E+00                    -6.6667E+03                    -6.5450E+06                    -6.5245E+06                    -6.5450E+06                     7.7244E-02                     7.2963E-01                     5.1205E-01                     7.3275E-01                     0.0000E+00                     0.0000E+00                     0.0000E+00                     0.0000E+00                     0.0000E+00                     0.0000E+00                     0.0000E+00                     0.0000E+00                     0.0000E+00                     0.0000E+00                     0.0000E+00                     0.0000E+00                     0.0000E+00                     0.0000E+00                     0.0000E+00                     0.0000E+00                     0.0000E+00                     0.0000E+00                     0.0000E+00                     0.0000E+00                     0.0000E+00                     0.0000E+00                     0.0000E+00                     0.0000E+00
    1.1875                     8.0113E-02                     1.8859E+06                     2.2175E-01                     5.2010E+07                     1.5246E+01                    -2.4254E+07                     1.1506E+01                     2.7751E+03                     6.1281E+05                     6.6169E+05                     6.1281E+05                    -3.0908E-02                     1.6722E-01                    -6.1973E-02                     1.4742E-01                    -7.0793E+04                     3.7512E+04                    -1.2309E+05                     3.7512E+04                    -4.2601E-01                     3.5710E+00                    -6.6482E-01                     4.6600E+00                     1.0022E+04                    -6.6032E+06                    -6.5330E+06                    -6.6032E+06                     7.7201E-02                     7.3013E-01                     5.1030E-01                     7.3322E-01                     0.0000E+00                     0.0000E+00                     0.0000E+00                     0.0000E+00                     0.0000E+00                     0.0000E+00                     0.0000E+00                     0.0000E+00                     0.0000E+00                     0.0000E+00                     0.0000E+00                     0.0000E+00                     0.0000E+00                     0.0000E+00                     0.0000E+00                     0.0000E+00                     0.0000E+00                     0.0000E+00                     0.0000E+00                     0.0000E+00                     0.0000E+00                     0.0000E+00                     0.0000E+00                     0.0000E+00
    1.2000                     7.9845E-02                     1.8925E+06                     2.2260E-01                     5.2002E+07                     1.5266E+01                    -2.4327E+07                     1.3090E+01                    -6.8786E+02                     6.1839E+05                     6.6049E+05                     6.1840E+05                    -3.0751E-02                     1.6758E-01                    -6.2256E-02                     1.4803E-01                    -7.0836E+04                     3.4355E+04                    -1.2500E+05                     3.4355E+04                    -4.2691E-01                     3.5805E+00                    -6.6502E-01                     4.6717E+00                     2.6711E+04                    -6.6614E+06                    -6.5414E+06                    -6.6614E+06                     7.7159E-02                     7.3063E-01                     5.0854E-01                     7.3370E-01                     0.0000E+00                     0.0000E+00                     0.0000E+00                     0.0000E+00                     0.0000E+00                     0.0000E+00                     0.0000E+00                     0.0000E+00                     0.0000E+00                     0.0000E+00                     0.0000E+00                     0.0000E+00                     0.0000E+00                     0.0000E+00                     0.0000E+00                     0.0000E+00                     0.0000E+00                     0.0000E+00                     0.0000E+00                     0.0000E+00                     0.0000E+00                     0.0000E+00                     0.0000E+00                     0.0000E+00
    1.2125                     7.7917E-02                     1.8943E+06                     2.2344E-01                     5.1994E+07                     1.5332E+01                    -2.4344E+07                     1.3106E+01                    -4.2226E+03                     6.2250E+05                     6.5751E+05                     6.2250E+05                    -3.0598E-02                     1.6788E-01                    -6.2432E-02                     1.4859E-01                    -7.0860E+04                     3.1348E+04                    -1.2666E+05                     3.1348E+04                    -4.2750E-01                     3.5888E+00                    -6.6590E-01                     4.6823E+00                     4.3223E+04                    -6.7008E+06                    -6.5348E+06                    -6.7008E+06                     7.7024E-02                     7.3078E-01                     5.0672E-01                     7.3382E-01                     0.0000E+00                     0.0000E+00                     0.0000E+00                     0.0000E+00                     0.0000E+00                     0.0000E+00                     0.0000E+00                     0.0000E+00                     0.0000E+00                     0.0000E+00                     0.0000E+00                     0.0000E+00                     0.0000E+00                     0.0000E+00                     0.0000E+00                     0.0000E+00                     0.0000E+00                     0.0000E+00                     0.0000E+00                     0.0000E+00                     0.0000E+00                     0.0000E+00                     0.0000E+00                     0.0000E+00
    1.2250                     7.5990E-02                     1.8961E+06                     2.2427E-01                     5.1986E+07                     1.5398E+01                    -2.4362E+07                     1.3122E+01                    -7.7574E+03                     6.2660E+05                     6.5452E+05                     6.2660E+05                    -3.0445E-02                     1.6818E-01                    -6.2608E-02                     1.4915E-01                    -7.0883E+04                     2.8341E+04                    -1.2832E+05                     2.8341E+04                    -4.2808E-01                     3.5970E+00                    -6.6678E-01                     4.6930E+00                     5.9735E+04                    -6.7402E+06                    -6.5282E+06                    -6.7402E+06                     7.6890E-02                     7.3094E-01                     5.0489E-01                     7.3395E-01                     0.0000E+00                     0.0000E+00                     0.0000E+00                     0.0000E+00                     0.0000E+00                     0.0000E+00                     0.0000E+00                     0.0000E+00                     0.0000E+00                     0.0000E+00                     0.0000E+00                     0.0000E+00                     0.0000E+00                     0.0000E+00                     0.0000E+00                     0.0000E+00                     0.0000E+00                     0.0000E+00                     0.0000E+00                     0.0000E+00                     0.0000E+00                     0.0000E+00                     0.0000E+00                     0.0000E+00
    1.2375                     7.4062E-02                     1.8979E+06                     2.2511E-01                     5.1979E+07                     1.5562E+01                    -2.4380E+07                     1.1575E+01                    -1.1292E+04                     6.3070E+05                     6.5153E+05                     6.3070E+05                    -3.0292E-02                     1.6847E-01                    -6.2783E-02                     1.4971E-01                    -7.0907E+04                     2.5334E+04                    -1.2999E+05                     2.5333E+04                    -4.2866E-01                     3.6053E+00                    -6.6766E-01                     4.7036E+00                     7.6247E+04                    -6.7797E+06                    -6.5216E+06                    -6.7796E+06                     7.6756E-02                     7.3109E-01                     5.0307E-01                     7.3407E-01                     0.0000E+00                     0.0000E+00                     0.0000E+00                     0.0000E+00                     0.0000E+00                     0.0000E+00                     0.0000E+00                     0.0000E+00                     0.0000E+00                     0.0000E+00                     0.0000E+00                     0.0000E+00                     0.0000E+00                     0.0000E+00                     0.0000E+00                     0.0000E+00                     0.0000E+00                     0.0000E+00                     0.0000E+00                     0.0000E+00                     0.0000E+00                     0.0000E+00                     0.0000E+00                     0.0000E+00
