
 **************************************************************************************************
 OpenFAST

 Copyright (C) 2020 National Renewable Energy Laboratory
 Copyright (C) 2020 Envision Energy USA LTD

 This program is licensed under Apache License Version 2.0 and comes with ABSOLUTELY NO WARRANTY.
 See the "LICENSE" file distributed with this software for details.
 **************************************************************************************************

 OpenFAST-v2.4.0-53-g8bfd804f
 Compile Info:
  - Compiler: GCC version 7.5.0
  - Architecture: 64 bit
  - Precision: double
  - Date: Nov  6 2020
  - Time: 18:38:52
 Execution Info:
  - Date: 11/06/2020
  - Time: 21:59:00+0000

 OpenFAST input file heading:
     FAST Certification Test #18: NREL 5.0 MW Baseline Wind Turbine (Onshore)

 Running ElastoDyn.
 Nodal outputs section of ElastoDyn input file not found or improperly formatted.
 Running AeroDyn.
 Nodal output section of AeroDyn input file not found or improperly formatted.
 Warning: Turning off Unsteady Aerodynamics because C_nalpha is 0. (node 1, blade 1)
 Warning: Turning off Unsteady Aerodynamics because C_nalpha is 0. (node 2, blade 1)
 Warning: Turning off Unsteady Aerodynamics because C_nalpha is 0. (node 3, blade 1)
 Warning: Turning off Unsteady Aerodynamics because C_nalpha is 0. (node 4, blade 1)
 Warning: Turning off Unsteady Aerodynamics because C_nalpha is 0. (node 1, blade 2)
 Warning: Turning off Unsteady Aerodynamics because C_nalpha is 0. (node 2, blade 2)
 Warning: Turning off Unsteady Aerodynamics because C_nalpha is 0. (node 3, blade 2)
 Warning: Turning off Unsteady Aerodynamics because C_nalpha is 0. (node 4, blade 2)
 Warning: Turning off Unsteady Aerodynamics because C_nalpha is 0. (node 1, blade 3)
 Warning: Turning off Unsteady Aerodynamics because C_nalpha is 0. (node 2, blade 3)
 Warning: Turning off Unsteady Aerodynamics because C_nalpha is 0. (node 3, blade 3)
 Warning: Turning off Unsteady Aerodynamics because C_nalpha is 0. (node 4, blade 3)
 Running InflowWind.

    Reading a 31x31 grid (145 m wide, 17.5 m to 162.5 m above ground) with a characteristic wind
    speed of 12 m/s. This full-field file was generated by TurbSim (v1.06.00, 21-Sep-2012) on
    07-Jan-2014 at 12:50:45.

    Processed 1442 time steps of 20-Hz full-field data (72.05 seconds).
 Running ServoDyn.
 Running ServoDyn Interface for Bladed Controllers (using GNU Fortran for Linux, ).
 Using legacy Bladed DLL interface.
  Time: 0 of 60 seconds.

 FAST_Solution0:CalcOutputs_And_SolveForInputs:SolveOption2:SrvD_CalcOutput:DLL_controller_call:Run
 ning with torque and pitch control of the NREL offshore 5MW baseline wind turbine from DISCON.dll
 as written by J. Jonkman of NREL/NWTC for use in the IEA Annex XXIII OC3 studies.

                                                                                                   Time: 5 of 60 seconds.  Estimated final completion at 22:00:39.                                                                                                                                     Time: 10 of 60 seconds.  Estimated final completion at 22:00:42.                                                                                                                                    Time: 15 of 60 seconds.  Estimated final completion at 22:00:42.                                                                                                                                    Time: 20 of 60 seconds.  Estimated final completion at 22:00:40.                                                                                                                                    Time: 25 of 60 seconds.  Estimated final completion at 22:00:41.                                                                                                                                    Time: 30 of 60 seconds.  Estimated final completion at 22:00:55.                                                                                                                                    Time: 35 of 60 seconds.  Estimated final completion at 22:00:44.                                                                                                                                    Time: 40 of 60 seconds.  Estimated final completion at 22:00:45.                                                                                                                                    Time: 45 of 60 seconds.  Estimated final completion at 22:00:44.                                                                                                                                    Time: 50 of 60 seconds.  Estimated final completion at 22:00:43.                                                                                                                                    Time: 55 of 60 seconds.  Estimated final completion at 22:00:43.                                                                                                                                    Time: 60 of 60 seconds.  Estimated final completion at 22:00:43.                                                                                                                                   
  Total Real Time:       1.7149 minutes
  Total CPU Time:        1.7063 minutes
  Simulation CPU Time:   1.6959 minutes
  Simulated Time:        1 minutes
  Time Ratio (Sim/CPU):  0.58965

  OpenFAST terminated normally.

