
 **************************************************************************************************
 HydroDyn Driver

 Copyright (C) 2020 National Renewable Energy Laboratory
 Copyright (C) 2020 Envision Energy USA LTD

 This program is licensed under Apache License Version 2.0 and comes with ABSOLUTELY NO WARRANTY.
 See the "LICENSE" file distributed with this software for details.
 **************************************************************************************************

  Running HydroDyn Driver a part of OpenFAST - v2.4.0-56-g6e92083d-dirty
  linked with NWTC Subroutine Library

 Opening HydroDyn Driver input file:
 /Users/aplatt/software-development/GitHub/openfast-4/build-DP-gcc7/reg_tests/modules/hydrodyn/hd_5
 MW_ITIBarge_DLL_WTurb_WavesIrr/hd_driver.inp
 Running HydroDyn.
  Generating incident wave kinematics and current time history.
  Reading in WAMIT output with root name
  "./../../../glue-codes/openfast/5MW_Baseline/HydroData/Barge".
  Computing radiation impulse response functions and wave diffraction forces.

 Using SS_Radiation Module, with 30 of 30 radiation states
  Time: 0 of 60.013 seconds.
                                                                                                   Time: 1 of 60.013 seconds.  Estimated final completion at 17:01:44.                                                                                                                                 Time: 2 of 60.013 seconds.  Estimated final completion at 17:01:44.                                                                                                                                 Time: 3 of 60.013 seconds.  Estimated final completion at 17:01:44.                                                                                                                                 Time: 4 of 60.013 seconds.  Estimated final completion at 17:01:44.                                                                                                                                 Time: 5 of 60.013 seconds.  Estimated final completion at 17:01:44.                                                                                                                                 Time: 6 of 60.013 seconds.  Estimated final completion at 17:01:44.                                                                                                                                 Time: 7 of 60.013 seconds.  Estimated final completion at 17:01:44.                                                                                                                                 Time: 8 of 60.013 seconds.  Estimated final completion at 17:01:44.                                                                                                                                 Time: 9 of 60.013 seconds.  Estimated final completion at 17:01:44.                                                                                                                                 Time: 10 of 60.013 seconds.  Estimated final completion at 17:01:44.                                                                                                                                Time: 11 of 60.013 seconds.  Estimated final completion at 17:01:44.                                                                                                                                Time: 12 of 60.013 seconds.  Estimated final completion at 17:01:44.                                                                                                                                Time: 13 of 60.013 seconds.  Estimated final completion at 17:01:44.                                                                                                                                Time: 14 of 60.013 seconds.  Estimated final completion at 17:01:44.                                                                                                                                Time: 15 of 60.013 seconds.  Estimated final completion at 17:01:44.                                                                                                                                Time: 16 of 60.013 seconds.  Estimated final completion at 17:01:44.                                                                                                                                Time: 17 of 60.013 seconds.  Estimated final completion at 17:01:44.                                                                                                                                Time: 18 of 60.013 seconds.  Estimated final completion at 17:01:44.                                                                                                                                Time: 19 of 60.013 seconds.  Estimated final completion at 17:01:44.                                                                                                                                Time: 20 of 60.013 seconds.  Estimated final completion at 17:01:44.                                                                                                                                Time: 21 of 60.013 seconds.  Estimated final completion at 17:01:44.                                                                                                                                Time: 22 of 60.013 seconds.  Estimated final completion at 17:01:44.                                                                                                                                Time: 23 of 60.013 seconds.  Estimated final completion at 17:01:44.                                                                                                                                Time: 24 of 60.013 seconds.  Estimated final completion at 17:01:44.                                                                                                                                Time: 25 of 60.013 seconds.  Estimated final completion at 17:01:44.                                                                                                                                Time: 26 of 60.013 seconds.  Estimated final completion at 17:01:44.                                                                                                                                Time: 27 of 60.013 seconds.  Estimated final completion at 17:01:44.                                                                                                                                Time: 28 of 60.013 seconds.  Estimated final completion at 17:01:44.                                                                                                                                Time: 29 of 60.013 seconds.  Estimated final completion at 17:01:44.                                                                                                                                Time: 30 of 60.013 seconds.  Estimated final completion at 17:01:44.                                                                                                                                Time: 31 of 60.013 seconds.  Estimated final completion at 17:01:44.                                                                                                                                Time: 32 of 60.013 seconds.  Estimated final completion at 17:01:44.                                                                                                                                Time: 33 of 60.013 seconds.  Estimated final completion at 17:01:44.                                                                                                                                Time: 34 of 60.013 seconds.  Estimated final completion at 17:01:44.                                                                                                                                Time: 35 of 60.013 seconds.  Estimated final completion at 17:01:44.                                                                                                                                Time: 36 of 60.013 seconds.  Estimated final completion at 17:01:44.                                                                                                                                Time: 37 of 60.013 seconds.  Estimated final completion at 17:01:44.                                                                                                                                Time: 38 of 60.013 seconds.  Estimated final completion at 17:01:44.                                                                                                                                Time: 39 of 60.013 seconds.  Estimated final completion at 17:01:44.                                                                                                                                Time: 40 of 60.013 seconds.  Estimated final completion at 17:01:44.                                                                                                                                Time: 41 of 60.013 seconds.  Estimated final completion at 17:01:44.                                                                                                                                Time: 42 of 60.013 seconds.  Estimated final completion at 17:01:44.                                                                                                                                Time: 43 of 60.013 seconds.  Estimated final completion at 17:01:44.                                                                                                                                Time: 44 of 60.013 seconds.  Estimated final completion at 17:01:44.                                                                                                                                Time: 45 of 60.013 seconds.  Estimated final completion at 17:01:44.                                                                                                                                Time: 46 of 60.013 seconds.  Estimated final completion at 17:01:44.                                                                                                                                Time: 47 of 60.013 seconds.  Estimated final completion at 17:01:44.                                                                                                                                Time: 48 of 60.013 seconds.  Estimated final completion at 17:01:44.                                                                                                                                Time: 49 of 60.013 seconds.  Estimated final completion at 17:01:44.                                                                                                                                Time: 50 of 60.013 seconds.  Estimated final completion at 17:01:44.                                                                                                                                Time: 51 of 60.013 seconds.  Estimated final completion at 17:01:44.                                                                                                                                Time: 52 of 60.013 seconds.  Estimated final completion at 17:01:44.                                                                                                                                Time: 53 of 60.013 seconds.  Estimated final completion at 17:01:44.                                                                                                                                Time: 54 of 60.013 seconds.  Estimated final completion at 17:01:44.                                                                                                                                Time: 55 of 60.013 seconds.  Estimated final completion at 17:01:44.                                                                                                                                Time: 56 of 60.013 seconds.  Estimated final completion at 17:01:44.                                                                                                                                Time: 57 of 60.013 seconds.  Estimated final completion at 17:01:44.                                                                                                                                Time: 58 of 60.013 seconds.  Estimated final completion at 17:01:44.                                                                                                                                Time: 59 of 60.013 seconds.  Estimated final completion at 17:01:44.                                                                                                                                Time: 60 of 60.013 seconds.  Estimated final completion at 17:01:44.                                                                                                                               
  Total Real Time:       0.611 seconds
  Total CPU Time:        0.60387 seconds
  Simulation CPU Time:   0.33341 seconds
  Simulated Time:        60 seconds
  Time Ratio (Sim/CPU):  179.96

  Program terminated normally.

