
This summary information was generated by ElastoDyn on 19-Apr-2023 at 11:08:20.


Turbine features:

            Upwind, 2-bladed rotor with rigid hub.
            The model has 11 of 22 DOFs active (enabled) at start-up.
 Disabled   Platform horizontal surge translation DOF 
 Disabled   Platform horizontal sway translation DOF 
 Disabled   Platform vertical heave translation DOF 
 Disabled   Platform roll tilt rotation DOF 
 Disabled   Platform pitch tilt rotation DOF 
 Disabled   Platform yaw rotation DOF 
 Enabled    1st tower fore-aft bending mode DOF 
 Enabled    1st tower side-to-side bending mode DOF 
 Enabled    2nd tower fore-aft bending mode DOF 
 Enabled    2nd tower side-to-side bending mode DOF 
 Disabled   Nacelle yaw DOF 
 Disabled   Rotor-furl DOF 
 Disabled   Variable speed generator DOF 
 Enabled    Drivetrain rotational-flexibility DOF 
 Disabled   Tail-furl DOF 
 Enabled    1st flapwise bending-mode DOF of blade 1 
 Enabled    1st edgewise bending-mode DOF of blade 1 
 Enabled    2nd flapwise bending-mode DOF of blade 1 
 Enabled    1st flapwise bending-mode DOF of blade 2 
 Enabled    1st edgewise bending-mode DOF of blade 2 
 Enabled    2nd flapwise bending-mode DOF of blade 2 
 Disabled   Hub teetering DOF 


Time steps:

    Structural            (s)        0.00500000


Some calculated parameters:

    Hub-Height            (m)           -20.000
    Flexible Tower Length (m)            28.800
    Flexible Blade Length (m)             9.000


Rotor mass properties:

    Rotor Mass            (kg)        12475.378
    Rotor Inertia         (kg-m^2)   230315.500
                                        Blade 1      Blade 2
                                        -------      -------
    Mass                  (kg)         6167.689     6167.689
    Second Mass Moment    (kg-m^2)    74994.538    74994.538
    First Mass Moment     (kg-m)      16979.590    16979.590
    Center of Mass        (m)             2.753        2.753


Additional mass properties:

    Tower-top Mass        (kg)        52575.378
    Tower Mass            (kg)       146200.032
    Platform Mass         (kg)            0.000
    Mass Incl. Platform   (kg)       198775.410


Interpolated tower properties:

Node  TwFract   HNodes  DHNodes  TMassDen    FAStiff    SSStiff
 (-)      (-)      (m)      (m)    (kg/m)     (Nm^2)     (Nm^2)
   1    0.050    1.440    2.880  5076.390  1.270E+08  1.270E+08
   2    0.150    4.320    2.880  5076.390  1.270E+08  1.270E+08
   3    0.250    7.200    2.880  5076.390  1.270E+08  1.270E+08
   4    0.350   10.080    2.880  5076.390  1.270E+08  1.270E+08
   5    0.450   12.960    2.880  5076.390  1.270E+08  1.270E+08
   6    0.550   15.840    2.880  5076.390  1.270E+08  1.270E+08
   7    0.650   18.720    2.880  5076.390  1.270E+08  1.270E+08
   8    0.750   21.600    2.880  5076.390  1.270E+08  1.270E+08
   9    0.850   24.480    2.880  5076.390  1.270E+08  1.270E+08
  10    0.950   27.360    2.880  5076.390  1.270E+08  1.270E+08


Interpolated blade 1 properties:

Node  BlFract   RNodes  DRNodes PitchAxis  StrcTwst  BMassDen    FlpStff    EdgStff
 (-)      (-)      (m)      (m)       (-)     (deg)    (kg/m)     (Nm^2)     (Nm^2)
   1    0.020    1.180    0.360     0.489    12.860  2128.266  2.466E+08  2.904E+08
   2    0.060    1.540    0.360     0.446    12.860  1676.323  1.655E+08  1.118E+08
   3    0.100    1.900    0.360     0.383    12.860  1004.000  6.720E+07  8.550E+07
   4    0.140    2.260    0.360     0.335    12.860  1053.058  4.987E+07  1.076E+08
   5    0.180    2.620    0.360     0.320    12.331  1064.193  3.970E+07  1.112E+08
   6    0.220    2.980    0.360     0.320    10.881  1071.486  3.350E+07  1.078E+08
   7    0.260    3.340    0.360     0.320     9.689  1031.811  2.796E+07  9.660E+07
   8    0.300    3.700    0.360     0.320     8.710   976.000  2.430E+07  8.590E+07
   9    0.340    4.060    0.360     0.320     7.902   891.095  2.090E+07  7.151E+07
  10    0.380    4.420    0.360     0.320     7.222   829.065  1.786E+07  6.196E+07
  11    0.420    4.780    0.360     0.320     6.634   754.814  1.486E+07  5.282E+07
  12    0.460    5.140    0.360     0.320     6.122   688.040  1.242E+07  4.365E+07
  13    0.500    5.500    0.360     0.320     5.680   624.900  1.040E+07  3.620E+07
  14    0.540    5.860    0.360     0.320     5.290   557.244  8.215E+06  2.960E+07
  15    0.580    6.220    0.360     0.320     4.938   480.628  6.329E+06  2.252E+07
  16    0.620    6.580    0.360     0.320     4.614   435.253  5.075E+06  1.816E+07
  17    0.660    6.940    0.360     0.320     4.310   374.156  3.771E+06  1.420E+07
  18    0.700    7.300    0.360     0.320     4.030   322.300  2.690E+06  1.080E+07
  19    0.740    7.660    0.360     0.320     3.754   270.913  1.836E+06  8.007E+06
  20    0.780    8.020    0.360     0.320     3.482   223.260  1.170E+06  5.745E+06
  21    0.820    8.380    0.360     0.320     3.218   182.766  6.817E+05  3.984E+06
  22    0.860    8.740    0.360     0.320     2.946   149.880  3.934E+05  2.781E+06
  23    0.900    9.100    0.360     0.320     2.670   121.700  1.980E+05  1.840E+06
  24    0.940    9.460    0.360     0.320     2.380   114.744  1.746E+05  1.498E+06
  25    0.980    9.820    0.360     0.320     2.084   106.575  1.600E+05  1.220E+06


Interpolated blade 2 properties:

Node  BlFract   RNodes  DRNodes PitchAxis  StrcTwst  BMassDen    FlpStff    EdgStff
 (-)      (-)      (m)      (m)       (-)     (deg)    (kg/m)     (Nm^2)     (Nm^2)
   1    0.020    1.180    0.360     0.489    12.860  2128.266  2.466E+08  2.904E+08
   2    0.060    1.540    0.360     0.446    12.860  1676.323  1.655E+08  1.118E+08
   3    0.100    1.900    0.360     0.383    12.860  1004.000  6.720E+07  8.550E+07
   4    0.140    2.260    0.360     0.335    12.860  1053.058  4.987E+07  1.076E+08
   5    0.180    2.620    0.360     0.320    12.331  1064.193  3.970E+07  1.112E+08
   6    0.220    2.980    0.360     0.320    10.881  1071.486  3.350E+07  1.078E+08
   7    0.260    3.340    0.360     0.320     9.689  1031.811  2.796E+07  9.660E+07
   8    0.300    3.700    0.360     0.320     8.710   976.000  2.430E+07  8.590E+07
   9    0.340    4.060    0.360     0.320     7.902   891.095  2.090E+07  7.151E+07
  10    0.380    4.420    0.360     0.320     7.222   829.065  1.786E+07  6.196E+07
  11    0.420    4.780    0.360     0.320     6.634   754.814  1.486E+07  5.282E+07
  12    0.460    5.140    0.360     0.320     6.122   688.040  1.242E+07  4.365E+07
  13    0.500    5.500    0.360     0.320     5.680   624.900  1.040E+07  3.620E+07
  14    0.540    5.860    0.360     0.320     5.290   557.244  8.215E+06  2.960E+07
  15    0.580    6.220    0.360     0.320     4.938   480.628  6.329E+06  2.252E+07
  16    0.620    6.580    0.360     0.320     4.614   435.253  5.075E+06  1.816E+07
  17    0.660    6.940    0.360     0.320     4.310   374.156  3.771E+06  1.420E+07
  18    0.700    7.300    0.360     0.320     4.030   322.300  2.690E+06  1.080E+07
  19    0.740    7.660    0.360     0.320     3.754   270.913  1.836E+06  8.007E+06
  20    0.780    8.020    0.360     0.320     3.482   223.260  1.170E+06  5.745E+06
  21    0.820    8.380    0.360     0.320     3.218   182.766  6.817E+05  3.984E+06
  22    0.860    8.740    0.360     0.320     2.946   149.880  3.934E+05  2.781E+06
  23    0.900    9.100    0.360     0.320     2.670   121.700  1.980E+05  1.840E+06
  24    0.940    9.460    0.360     0.320     2.380   114.744  1.746E+05  1.498E+06
  25    0.980    9.820    0.360     0.320     2.084   106.575  1.600E+05  1.220E+06


Requested Outputs:


 Col   Parameter            Units               
 ---   ---------------      ---------------     
   0   Time                 (s)                 


  Requested Output Channels at each blade station:
 Col   Parameter            Units               
 ---   ---------------      ---------------     
