
 **************************************************************************************************
 OpenFAST

 Copyright (C) 2023 National Renewable Energy Laboratory
 Copyright (C) 2023 Envision Energy USA LTD

 This program is licensed under Apache License Version 2.0 and comes with ABSOLUTELY NO WARRANTY.
 See the "LICENSE" file distributed with this software for details.
 **************************************************************************************************

 OpenFAST-v3.5.1-3-gb48c9b22
 Compile Info:
  - Compiler: GCC version 13.2.0
  - Architecture: 64 bit
  - Precision: double
  - OpenMP: No
  - Date: Nov 20 2023
  - Time: 16:26:54
 Execution Info:
  - Date: 11/20/2023
  - Time: 17:12:04-0700

 OpenFAST input file heading:
     Fixed MHK turbine, based on the RM1 tidal current turbine

 Running ElastoDyn.
 Nodal outputs section of ElastoDyn input file not found or improperly formatted.
 Running AeroDyn.
 AeroDyn Nodal Outputs: Nodal output section of AeroDyn input file not found or improperly formatted.
 Skipping nodal outputs.
 Running InflowWind.
  Time: 0 of 30 seconds.
                                                                                                   Time: 5 of 30 seconds.  Estimated final completion at 17:12:44.                                                                                                                                     Time: 10 of 30 seconds.  Estimated final completion at 17:12:44.                                                                                                                                    Time: 15 of 30 seconds.  Estimated final completion at 17:12:44.                                                                                                                                    Time: 20 of 30 seconds.  Estimated final completion at 17:12:44.                                                                                                                                    Time: 25 of 30 seconds.  Estimated final completion at 17:12:44.                                                                                                                                    Time: 30 of 30 seconds.  Estimated final completion at 17:12:44.                                                                                                                                   
  Total Real Time:       39.294 seconds
  Total CPU Time:        39.287 seconds
  Simulation CPU Time:   39.198 seconds
  Simulated Time:        30 seconds
  Time Ratio (Sim/CPU):  0.76534

  OpenFAST terminated normally.

