
 **************************************************************************************************
 OpenFAST

 Copyright (C) 2023 National Renewable Energy Laboratory
 Copyright (C) 2023 Envision Energy USA LTD

 This program is licensed under Apache License Version 2.0 and comes with ABSOLUTELY NO WARRANTY.
 See the "LICENSE" file distributed with this software for details.
 **************************************************************************************************

 OpenFAST-v3.4.1-164-gc9aa5554-dirty
 Compile Info:
  - Compiler: GCC version 12.2.0
  - Architecture: 64 bit
  - Precision: double
  - OpenMP: No
  - Date: Apr 19 2023
  - Time: 09:56:12
 Execution Info:
  - Date: 04/19/2023
  - Time: 12:18:13-0600

 OpenFAST input file heading:
     Fixed MHK turbine, based on the RM1 tidal current turbine

 Running ElastoDyn.
 Nodal outputs section of ElastoDyn input file not found or improperly formatted.
 Running AeroDyn.
 AD15 Nodal Outputs: Nodal output section of AeroDyn input file not found or improperly formatted.
 Skipping nodal outputs.
 Running InflowWind.
  Time: 0 of 30 seconds.
                                                                                                   Time: 5 of 30 seconds.  Estimated final completion at 12:18:54.                                                                                                                                     Time: 10 of 30 seconds.  Estimated final completion at 12:18:54.                                                                                                                                    Time: 15 of 30 seconds.  Estimated final completion at 12:18:54.                                                                                                                                    Time: 20 of 30 seconds.  Estimated final completion at 12:18:54.                                                                                                                                    Time: 25 of 30 seconds.  Estimated final completion at 12:18:54.                                                                                                                                    Time: 30 of 30 seconds.  Estimated final completion at 12:18:54.                                                                                                                                   
  Total Real Time:       40.436 seconds
  Total CPU Time:        40.435 seconds
  Simulation CPU Time:   40.363 seconds
  Simulated Time:        30 seconds
  Time Ratio (Sim/CPU):  0.74325

  OpenFAST terminated normally.

