
 **************************************************************************************************
 OpenFAST

 Copyright (C) 2021 National Renewable Energy Laboratory
 Copyright (C) 2021 Envision Energy USA LTD

 This program is licensed under Apache License Version 2.0 and comes with ABSOLUTELY NO WARRANTY.
 See the "LICENSE" file distributed with this software for details.
 **************************************************************************************************

 OpenFAST-v2.5.0-607-g1dd8e752
 Compile Info:
  - Compiler: GCC version 10.2.0
  - Architecture: 64 bit
  - Precision: double
  - Date: Mar  4 2021
  - Time: 11:41:08
 Execution Info:
  - Date: 03/04/2021
  - Time: 11:58:06-0700

 OpenFAST input file heading:
     FAST Certification Test #15: SWRT 3-bladed upwind turbine with many DOFs, variable speed
     control, free yaw, tail-furl, EOG01 event

 Running ElastoDyn.
 Nodal outputs section of ElastoDyn input file not found or improperly formatted.
 Running AeroDyn.
 AD15 Nodal Outputs: Nodal output section of AeroDyn input file not found or improperly formatted.
 Skipping nodal outputs.
 Running InflowWind.
 Running ServoDyn.

 FAST_InitializeAll: IfW_Init:IfW_UniformWind_Init: Could not read upflow column in uniform wind
 files. Assuming upflow is 0.

  Time: 0 of 20 seconds.

  Using variable speed generator option.
    RPM and Torque (Nm) for SWRT rotor mod by CH Aug 9, 2004 with new test data.  See Config B
    Torque vs RPM.xls


 FAST_Solution:CalcOutputs_And_SolveForInputs:SolveOption2:AD_CalcOutput:BEMT_CalcOutput(node 1,
 blade 1):UA_CalcOutput:UA_BlendSteady:Temporarily turning off UA due to high angle of attack or
 low relative velocity. This warning will not be repeated though the condition may persist.

                                                                                                   Time: 1 of 20 seconds.  Estimated final completion at 12:02:30.                                                                                                                                     Time: 2 of 20 seconds.  Estimated final completion at 12:02:41.                                                                                                                                     Time: 3 of 20 seconds.  Estimated final completion at 12:03:17.                                                                                                                                     Time: 4 of 20 seconds.  Estimated final completion at 12:03:13.                                                                                                                                     Time: 5 of 20 seconds.  Estimated final completion at 12:03:04.                                                                                                                                     Time: 6 of 20 seconds.  Estimated final completion at 12:02:36.                                                                                                                                     Time: 7 of 20 seconds.  Estimated final completion at 12:02:49.                                                                                                                                     Time: 8 of 20 seconds.  Estimated final completion at 12:02:43.                                                                                                                                     Time: 9 of 20 seconds.  Estimated final completion at 12:02:42.                                                                                                                                     Time: 10 of 20 seconds.  Estimated final completion at 12:02:34.                                                                                                                                    Time: 11 of 20 seconds.  Estimated final completion at 12:02:34.                                                                                                                                    Time: 12 of 20 seconds.  Estimated final completion at 12:02:39.                                                                                                                                    Time: 13 of 20 seconds.  Estimated final completion at 12:02:39.                                 
 FAST_Solution:CalcOutputs_And_SolveForInputs:SolveOption2:AD_CalcOutput:BEMT_CalcOutput(node 17,
 blade 1):UA_CalcOutput:Mach number exceeds 0.3. Theory is invalid. This warning will not be
 repeated though the condition may persist.

                                                                                                   Time: 14 of 20 seconds.  Estimated final completion at 12:02:39.                                                                                                                                    Time: 15 of 20 seconds.  Estimated final completion at 12:02:37.                                                                                                                                    Time: 16 of 20 seconds.  Estimated final completion at 12:02:36.                                                                                                                                    Time: 17 of 20 seconds.  Estimated final completion at 12:02:40.                                                                                                                                    Time: 18 of 20 seconds.  Estimated final completion at 12:02:41.                                                                                                                                    Time: 19 of 20 seconds.  Estimated final completion at 12:02:43.                                                                                                                                    Time: 20 of 20 seconds.  Estimated final completion at 12:02:41.                                                                                                                                   
  Total Real Time:       4.5788 minutes
  Total CPU Time:        4.4541 minutes
  Simulation CPU Time:   4.4533 minutes
  Simulated Time:        0.33333 minutes
  Time Ratio (Sim/CPU):  7.48509E-02

  OpenFAST terminated normally.

