
 **************************************************************************************************
 OpenFAST

 Copyright (C) 2020 National Renewable Energy Laboratory
 Copyright (C) 2020 Envision Energy USA LTD

 This program is licensed under Apache License Version 2.0 and comes with ABSOLUTELY NO WARRANTY.
 See the "LICENSE" file distributed with this software for details.
 **************************************************************************************************

 OpenFAST-v2.4.0-50-g416ff436
 Compile Info:
  - Compiler: GCC version 7.4.0
  - Architecture: 64 bit
  - Precision: double
  - Date: Nov  6 2020
  - Time: 12:35:02
 Execution Info:
  - Date: 11/06/2020
  - Time: 12:35:37-0700

 OpenFAST input file heading:
     FAST Certification Test #13: WindPACT 1.5 MW Baseline with many DOFs with VS and VP and FF
     turbulence.

 Running ElastoDyn.
 Nodal outputs section of ElastoDyn input file not found or improperly formatted.
 Running AeroDyn.
 Nodal output section of AeroDyn input file not found or improperly formatted.
 Warning: Turning off Unsteady Aerodynamics because C_nalpha is 0. (node 1, blade 1)
 Warning: Turning off Unsteady Aerodynamics because C_nalpha is 0. (node 2, blade 1)
 Warning: Turning off Unsteady Aerodynamics because C_nalpha is 0. (node 1, blade 2)
 Warning: Turning off Unsteady Aerodynamics because C_nalpha is 0. (node 2, blade 2)
 Warning: Turning off Unsteady Aerodynamics because C_nalpha is 0. (node 1, blade 3)
 Warning: Turning off Unsteady Aerodynamics because C_nalpha is 0. (node 2, blade 3)
 Running InflowWind.

    Reading a 7x7 grid (84 m wide, 42.288 m to 126.29 m above ground) with a characteristic wind
    speed of 12 m/s.

    Processed 940 time steps of 20-Hz full-field data (46.95 seconds).
 Running ServoDyn.
  Time: 0 of 40 seconds.
                                                                                                   Time: 1 of 40 seconds.  Estimated final completion at 12:36:54.                                                                                                                                     Time: 2 of 40 seconds.  Estimated final completion at 12:36:59.                                                                                                                                     Time: 3 of 40 seconds.  Estimated final completion at 12:36:59.                                                                                                                                     Time: 4 of 40 seconds.  Estimated final completion at 12:37:02.                                  
 ***********************************************
 Running with control option using data from:
  Speed controller for ADAMS WindPACT 15A1001 model April, 2002.
 ***********************************************

                                                                                                   Time: 5 of 40 seconds.  Estimated final completion at 12:37:08.                                                                                                                                     Time: 6 of 40 seconds.  Estimated final completion at 12:37:06.                                                                                                                                     Time: 7 of 40 seconds.  Estimated final completion at 12:37:06.                                                                                                                                     Time: 8 of 40 seconds.  Estimated final completion at 12:37:07.                                                                                                                                     Time: 9 of 40 seconds.  Estimated final completion at 12:37:10.                                                                                                                                     Time: 10 of 40 seconds.  Estimated final completion at 12:37:09.                                                                                                                                    Time: 11 of 40 seconds.  Estimated final completion at 12:37:07.                                                                                                                                    Time: 12 of 40 seconds.  Estimated final completion at 12:37:05.                                                                                                                                    Time: 13 of 40 seconds.  Estimated final completion at 12:37:06.                                                                                                                                    Time: 14 of 40 seconds.  Estimated final completion at 12:37:07.                                                                                                                                    Time: 15 of 40 seconds.  Estimated final completion at 12:37:11.                                                                                                                                    Time: 16 of 40 seconds.  Estimated final completion at 12:37:14.                                                                                                                                    Time: 17 of 40 seconds.  Estimated final completion at 12:37:11.                                                                                                                                    Time: 18 of 40 seconds.  Estimated final completion at 12:37:16.                                                                                                                                    Time: 19 of 40 seconds.  Estimated final completion at 12:37:23.                                                                                                                                    Time: 20 of 40 seconds.  Estimated final completion at 12:37:35.                                                                                                                                    Time: 21 of 40 seconds.  Estimated final completion at 12:37:42.                                                                                                                                    Time: 22 of 40 seconds.  Estimated final completion at 12:37:41.                                                                                                                                    Time: 23 of 40 seconds.  Estimated final completion at 12:37:59.                                                                                                                                    Time: 24 of 40 seconds.  Estimated final completion at 12:37:54.                                                                                                                                    Time: 25 of 40 seconds.  Estimated final completion at 12:37:54.                                                                                                                                    Time: 26 of 40 seconds.  Estimated final completion at 12:37:53.                                                                                                                                    Time: 27 of 40 seconds.  Estimated final completion at 12:37:53.                                                                                                                                    Time: 28 of 40 seconds.  Estimated final completion at 12:37:55.                                                                                                                                    Time: 29 of 40 seconds.  Estimated final completion at 12:37:50.                                                                                                                                    Time: 30 of 40 seconds.  Estimated final completion at 12:37:46.                                                                                                                                    Time: 31 of 40 seconds.  Estimated final completion at 12:37:44.                                                                                                                                    Time: 32 of 40 seconds.  Estimated final completion at 12:37:42.                                                                                                                                    Time: 33 of 40 seconds.  Estimated final completion at 12:37:41.                                                                                                                                    Time: 34 of 40 seconds.  Estimated final completion at 12:37:40.                                                                                                                                    Time: 35 of 40 seconds.  Estimated final completion at 12:37:41.                                                                                                                                    Time: 36 of 40 seconds.  Estimated final completion at 12:37:40.                                                                                                                                    Time: 37 of 40 seconds.  Estimated final completion at 12:37:41.                                                                                                                                    Time: 38 of 40 seconds.  Estimated final completion at 12:37:40.                                                                                                                                    Time: 39 of 40 seconds.  Estimated final completion at 12:37:40.                                                                                                                                    Time: 40 of 40 seconds.  Estimated final completion at 12:37:40.                                                                                                                                   
  Total Real Time:       2.0424 minutes
  Total CPU Time:        1.8197 minutes
  Simulation CPU Time:   1.819 minutes
  Simulated Time:        0.66667 minutes
  Time Ratio (Sim/CPU):  0.3665

  OpenFAST terminated normally.

