
This summary file was generated by TurbSim on 18-May-2018 at 16:25:24.


Runtime Options:

    123456  Random seed #1
    789012  Random seed #2
         F  Output binary HH turbulence parameters?
         F  Output formatted turbulence parameters?
         F  Output AeroDyn HH files?
         F  Output AeroDyn FF files?
         F  Output BLADED FF files?
         F  Output tower data?
         T  Output formatted FF files?
         F  Output coherent turbulence time step file?
         T  Clockwise rotation when looking downwind?
 0 -  NONE  IEC turbulence models scaled to exact specified standard deviation


Turbine/Model Specifications:

         5  Vertical grid-point matrix dimension
         5  Horizontal grid-point matrix dimension
     0.050  Time step [seconds]
   600.000  Analysis time [seconds]
    55.800  Usable output time [seconds]
    37.000  Hub height [m]
    30.000  Grid height [m]
    30.000  Grid width [m]
     5.000  Vertical flow angle [degrees]
    10.000  Horizontal flow angle [degrees]


Meteorological Boundary Conditions:

    IECKAI  IEC Kaimal spectral model
         1  IEC standard: IEC 61400-1 Ed. 3: 2005
         C  IEC turbulence characteristic
       NTM  IEC Normal Turbulence Model
       N/A  IEC Extreme Turbulence Model (ETM) "c" parameter [m/s]
       IEC  Wind profile type
    10.000  Reference height [m]
     6.000  Reference wind speed [m/s]
       N/A  Jet height [m]
     0.200  Power law exponent
     0.030  Surface roughness length [m]


Non-IEC Meteorological Boundary Conditions:

       N/A  Site latitude [degrees]
       N/A  Gradient Richardson number
       N/A  Friction or shear velocity [m/s]
       N/A  Mixing layer depth [m]
       N/A  Mean hub u'w' Reynolds stress
       N/A  Mean hub u'v' Reynolds stress
       N/A  Mean hub v'w' Reynolds stress


Spatial Coherence Models:

       IEC  u-component coherence model
      NONE  v-component coherence model
      NONE  w-component coherence model
(   12.000, 0.572E-03)  u-component coherence parameters
                   N/A  v-component coherence parameters
                   N/A  w-component coherence parameters
       N/A  Coherence exponent


You have requested that the following file(s) be generated:

   turbsim.u (formatted full-field U-component file)
   turbsim.v (formatted full-field V-component file)
   turbsim.w (formatted full-field W-component file)


Turbulence Simulation Scaling Parameter Summary:

   Turbulence model used                            =  IEC Kaimal
   Turbulence characteristic                        =  C
   IEC turbulence type                              =  Normal Turbulence Model
   IEC standard                                     =  IEC 61400-1 Ed. 3: 2005
   Mean wind speed at hub height                    =    7.351 m/s
   Expected value of turbulence intensity at 15 m/s =   12.000%
   Characteristic value of standard deviation       =    1.334 m/s
   Turbulence scale                                 =   25.900 m
   u-component integral scale                       =  209.790 m
   Coherency scale                                  =  209.790 m
   Characteristic value of hub turbulence intensity =   18.141%
   Gradient Richardson number                       =    0.000

   Wind profile type                                =  Power law on rotor disk, logarithmic elsewhere
   Power law exponent                               =    0.200
   Mean shear across rotor disk                     =    0.041 (m/s)/m
   Assumed rotor diameter                           =   30.000 m
   Surface roughness length                         =    0.030 m

   Nyquist frequency of turbulent wind field        =   10.000 Hz

   Number of time steps in the FFT                  =    12000
   Number of time steps output                      =     1198
   Number of points simulated                       =       25


Mean Flow Angles:

   Vertical   =   5.0 degrees
   Horizontal =  10.0 degrees

Mean Wind Speed Profile:

   Height    Wind Speed   Horizontal Angle  Vertical Angle  U-comp (X)   V-comp (Y)   W-comp (Z)
     (m)        (m/s)         (degrees)       (degrees)       (m/s)        (m/s)        (m/s)   
   ------    ----------   ----------------  --------------  ----------   ----------   ----------
     52.0        7.87           10.00            5.00          7.72         1.36         0.69
     44.5        7.63           10.00            5.00          7.48         1.32         0.66
     37.0        7.35           10.00            5.00          7.21         1.27         0.64
     29.5        7.03           10.00            5.00          6.89         1.22         0.61
     22.0        6.63           10.00            5.00          6.50         1.15         0.58


Harvested Random Seeds after Generation of the Random Numbers:

  -1072690142 Harvested seed # 1
   -580256050 Harvested seed # 2
  -1188507162 Harvested seed # 3
   -657101665 Harvested seed # 4
    330027105 Harvested seed # 5
   -354268899 Harvested seed # 6
    496756708 Harvested seed # 7
   -102763757 Harvested seed # 8
   -882559281 Harvested seed # 9
   1915729248 Harvested seed #10
   -569025953 Harvested seed #11
   2065499842 Harvested seed #12
  -1544617634 Harvested seed #13
   1014372885 Harvested seed #14
  -1442411066 Harvested seed #15
    900417328 Harvested seed #16
   1930196806 Harvested seed #17
   -349796249 Harvested seed #18
   1371247740 Harvested seed #19
   1282264490 Harvested seed #20
    205298510 Harvested seed #21
  -1625552616 Harvested seed #22
    427421531 Harvested seed #23
   1147839526 Harvested seed #24
    886854933 Harvested seed #25
  -1966359452 Harvested seed #26
    188336708 Harvested seed #27
  -1593718576 Harvested seed #28
      7659642 Harvested seed #29
   1621007307 Harvested seed #30
  -2145383662 Harvested seed #31
  -1682288398 Harvested seed #32
            0 Harvested seed #33


Hub-Height Simulated Turbulence Statistical Summary:

   Type of Wind        Min (m/s)   Mean (m/s)    Max (m/s)  Sigma (m/s)       TI (%)
   ----------------    ---------   ----------    ---------  -----------       ------
   Longitudinal (u)         3.96         7.35        10.22        1.046       14.230
   Lateral (v)             -3.52         0.00         4.59        1.042       14.180
   Vertical (w)            -2.28         0.00         2.74        0.652        8.866
   U component              4.00         7.21        10.39        1.033       14.322
   V component             -2.41         1.27         5.61        1.048       14.526
   W component             -1.62         0.64         3.49        0.664        9.210
   Horizontal (U&V)         4.05         7.40        10.40        1.032       13.943
   Total                    4.13         7.45        10.41        1.038       13.930

                       Min Reynolds     Mean Reynolds    Max Reynolds    Correlation
   Product             Stress (m/s)^2   Stress (m/s)^2   Stress (m/s)^2  Coefficient
   ----------------    --------------   --------------   --------------  -----------
   u'w'                     -3.523             0.066             4.894         0.096
   u'v'                     -8.047             0.033             6.871         0.030
   v'w'                     -5.132             0.002             3.349         0.003


   Friction Velocity (Ustar)  =      0.256 m/s
   Maximum Instantaneous TKE  =     11.163 (m/s)^2
   Maximum Instantaneous CTKE =      4.433 (m/s)^2


Grid Point Variance Summary:

   Y-coord  -15.00   -7.50    0.00    7.50   15.00

   Height   Standard deviation at grid points for the u component:
    52.00    1.241   1.254   1.206   1.215   1.299
    44.50    1.204   1.111   1.174   1.102   1.250
    37.00    1.215   1.123   1.046   1.034   1.145
    29.50    1.237   1.161   1.182   1.179   1.239
    22.00    1.269   1.189   1.196   1.254   1.273

   Height   Standard deviation at grid points for the v component:
    52.00    1.042   1.042   1.042   1.042   1.042
    44.50    1.042   1.042   1.042   1.042   1.042
    37.00    1.042   1.042   1.042   1.042   1.042
    29.50    1.042   1.042   1.042   1.042   1.042
    22.00    1.042   1.042   1.042   1.042   1.042

   Height   Standard deviation at grid points for the w component:
    52.00    0.652   0.652   0.652   0.652   0.652
    44.50    0.652   0.652   0.652   0.652   0.652
    37.00    0.652   0.652   0.652   0.652   0.652
    29.50    0.652   0.652   0.652   0.652   0.652
    22.00    0.652   0.652   0.652   0.652   0.652

   Mean standard deviation across all grid points:
      u component:    1.192 m/s
      v component:    1.042 m/s
      w component:    0.652 m/s


Processing complete.  0.21978 CPU seconds used.
