
**************************************************************************************************
MoorDyn Driver

Copyright (C) 2021 National Renewable Energy Laboratory
Copyright (C) 2021 Envision Energy USA LTD

Copyright (C) 2021 NREL, 2019 Matt Hall

This program is licensed under Apache License Version 2.0 and comes with ABSOLUTELY NO WARRANTY.
See the "LICENSE" file distributed with this software for details.
**************************************************************************************************

 Running MoorDyn Driver a part of OpenFAST - v2.5.0-1216-gd5620011-dirty
 linked with NWTC Subroutine Library

Opening MoorDyn Driver input file:  C:\code\openfast\reg_tests\MoordynChecks\test1\md_driver.inp
Running MoorDyn-F (v2.a13, 13 October 2021).
   This is an alpha version of MoorDyn-F v2, with significant input file changes from v1.
   Copyright: (C) 2021 National Renewable Energy Laboratory, (C) 2019 Matt Hall
   Parsing MoorDyn input file: test.dat
   Created mooring system:  1 lines, 2 points, 0 rods, 0 bodies.
   Finalizing initial conditions using dynamic relaxation.
   t=2  FairTen 1: 3.77537E+06, 1, 2                                                                 t=4  FairTen 1: 3.26991E+06, 3.77537E+06, 1                                                       t=6  FairTen 1: 3.40139E+06, 3.26991E+06, 3.77537E+06                                             t=8  FairTen 1: 3.42703E+06, 3.40139E+06, 3.26991E+06                                             t=10  FairTen 1: 3.34859E+06, 3.42703E+06, 3.40139E+06                                            t=12  FairTen 1: 3.40717E+06, 3.34859E+06, 3.42703E+06                                            t=14  FairTen 1: 3.35705E+06, 3.40717E+06, 3.34859E+06                                            t=16  FairTen 1: 3.43425E+06, 3.35705E+06, 3.40717E+06                                            t=18  FairTen 1: 3.35202E+06, 3.43425E+06, 3.35705E+06                                            t=20  FairTen 1: 3.39827E+06, 3.35202E+06, 3.43425E+06                                            t=22  FairTen 1: 3.39112E+06, 3.39827E+06, 3.35202E+06                                            t=24  FairTen 1: 3.37429E+06, 3.39112E+06, 3.39827E+06                                            t=26  FairTen 1: 3.41267E+06, 3.37429E+06, 3.39112E+06                                            t=28  FairTen 1: 3.36852E+06, 3.41267E+06, 3.37429E+06                                            t=30  FairTen 1: 3.38923E+06, 3.36852E+06, 3.41267E+06                                            t=32  FairTen 1: 3.38647E+06, 3.38923E+06, 3.36852E+06                                            t=34  FairTen 1: 3.39619E+06, 3.38647E+06, 3.38923E+06                                            t=36  FairTen 1: 3.37951E+06, 3.39619E+06, 3.38647E+06                                            t=38  FairTen 1: 3.39398E+06, 3.37951E+06, 3.39619E+06                                            t=40  FairTen 1: 3.38452E+06, 3.39398E+06, 3.37951E+06                                            t=42  FairTen 1: 3.37566E+06, 3.38452E+06, 3.39398E+06                                            t=44  FairTen 1: 3.40959E+06, 3.37566E+06, 3.38452E+06                                            t=46  FairTen 1: 3.36958E+06, 3.40959E+06, 3.37566E+06                                            t=48  FairTen 1: 3.40132E+06, 3.36958E+06, 3.40959E+06                                            t=50  FairTen 1: 3.37152E+06, 3.40132E+06, 3.36958E+06                                            t=52  FairTen 1: 3.40510E+06, 3.37152E+06, 3.40132E+06                                            t=54  FairTen 1: 3.37039E+06, 3.40510E+06, 3.37152E+06                                            t=56  FairTen 1: 3.40693E+06, 3.37039E+06, 3.40510E+06                                            t=58  FairTen 1: 3.36909E+06, 3.40693E+06, 3.37039E+06                                            t=60  FairTen 1: 3.39440E+06, 3.36909E+06, 3.40693E+06                                            t=62  FairTen 1: 3.39026E+06, 3.39440E+06, 3.36909E+06                                            t=64  FairTen 1: 3.38312E+06, 3.39026E+06, 3.39440E+06                                            t=66  FairTen 1: 3.39397E+06, 3.38312E+06, 3.39026E+06                                            t=68  FairTen 1: 3.38212E+06, 3.39397E+06, 3.38312E+06                                            t=70  FairTen 1: 3.38675E+06, 3.38212E+06, 3.39397E+06                                            t=72  FairTen 1: 3.38765E+06, 3.38675E+06, 3.38212E+06                                            t=74  FairTen 1: 3.39334E+06, 3.38765E+06, 3.38675E+06                                            t=76  FairTen 1: 3.38183E+06, 3.39334E+06, 3.38765E+06                                            t=78  FairTen 1: 3.38800E+06, 3.38183E+06, 3.39334E+06                                            t=80  FairTen 1: 3.39027E+06, 3.38800E+06, 3.38183E+06                                            t=82  FairTen 1: 3.38389E+06, 3.39027E+06, 3.38800E+06                                            t=84  FairTen 1: 3.39256E+06, 3.38389E+06, 3.39027E+06                                            t=86  FairTen 1: 3.38519E+06, 3.39256E+06, 3.38389E+06                                            t=88  FairTen 1: 3.38380E+06, 3.38519E+06, 3.39256E+06                                            t=90  FairTen 1: 3.39086E+06, 3.38380E+06, 3.38519E+06                                            t=92  FairTen 1: 3.38820E+06, 3.39086E+06, 3.38380E+06                                            t=94  FairTen 1: 3.38660E+06, 3.38820E+06, 3.39086E+06                                            t=96  FairTen 1: 3.38948E+06, 3.38660E+06, 3.38820E+06                                            t=98  FairTen 1: 3.38426E+06, 3.38948E+06, 3.38660E+06                                            t=100  FairTen 1: 3.38601E+06, 3.38426E+06, 3.38948E+06                                        
   Fairlead tensions did not converge within TMaxIC=100 seconds.
   MoorDyn initialization completed.
Running MoorDyn-F (v2.a13, 13 October 2021).
 MoorDyn has 0 coupled DOFs and/or active-tensioned inputs.

 Tmax -    60.0225000000000       and nt=        4800

 Doing time marching now...
 Time: 0 of 60.023 seconds.                                                                                                   Time: 0 of 60.023 seconds.  Estimated final completion at 14:14:42.                                                                                                   Time: 0 of 60.023 seconds.  Estimated final completion at 14:14:39.                                                                                                   Time: 1 of 60.023 seconds.  Estimated final completion at 14:14:39.                                                                                                   Time: 1 of 60.023 seconds.  Estimated final completion at 14:14:40.                                                                                                   Time: 1 of 60.023 seconds.  Estimated final completion at 14:14:42.                                                                                                   Time: 1 of 60.023 seconds.  Estimated final completion at 14:14:50.                                                                                                   Time: 2 of 60.023 seconds.  Estimated final completion at 14:14:46.                                                                                                   Time: 2 of 60.023 seconds.  Estimated final completion at 14:14:44.                                                                                                   Time: 2 of 60.023 seconds.  Estimated final completion at 14:14:40.                                                                                                   Time: 2 of 60.023 seconds.  Estimated final completion at 14:14:40.                                                                                                   Time: 3 of 60.023 seconds.  Estimated final completion at 14:14:36.                                                                                                   Time: 3 of 60.023 seconds.  Estimated final completion at 14:14:45.                                                                                                   Time: 3 of 60.023 seconds.  Estimated final completion at 14:14:37.                                                                                                   Time: 3 of 60.023 seconds.  Estimated final completion at 14:14:42.                                                                                                   Time: 4 of 60.023 seconds.  Estimated final completion at 14:14:37.                                                                                                   Time: 4 of 60.023 seconds.  Estimated final completion at 14:14:41.                                                                                                   Time: 4 of 60.023 seconds.  Estimated final completion at 14:14:38.                                                                                                   Time: 4 of 60.023 seconds.  Estimated final completion at 14:14:41.                                                                                                   Time: 5 of 60.023 seconds.  Estimated final completion at 14:14:37.                                                                                                   Time: 5 of 60.023 seconds.  Estimated final completion at 14:14:42.                                                                                                   Time: 5 of 60.023 seconds.  Estimated final completion at 14:14:55.                                                                                                   Time: 5 of 60.023 seconds.  Estimated final completion at 14:14:60.                                                                                                   Time: 6 of 60.023 seconds.  Estimated final completion at 14:14:54.                                                                                                   Time: 6 of 60.023 seconds.  Estimated final completion at 14:14:49.                                                                                                   Time: 6 of 60.023 seconds.  Estimated final completion at 14:14:49.                                                                                                   Time: 6 of 60.023 seconds.  Estimated final completion at 14:14:44.                                                                                                   Time: 7 of 60.023 seconds.  Estimated final completion at 14:14:54.                                                                                                   Time: 7 of 60.023 seconds.  Estimated final completion at 14:14:54.                                                                                                   Time: 7 of 60.023 seconds.  Estimated final completion at 14:14:52.                                                                                                   Time: 7 of 60.023 seconds.  Estimated final completion at 14:14:54.                                                                                                   Time: 8 of 60.023 seconds.  Estimated final completion at 14:14:48.                                                                                                   Time: 8 of 60.023 seconds.  Estimated final completion at 14:14:41.                                                                                                   Time: 8 of 60.023 seconds.  Estimated final completion at 14:14:53.                                                                                                   Time: 8 of 60.023 seconds.  Estimated final completion at 14:14:39.                                                                                                   Time: 9 of 60.023 seconds.  Estimated final completion at 14:14:39.                                                                                                   Time: 9 of 60.023 seconds.  Estimated final completion at 14:14:40.                                                                                                   Time: 9 of 60.023 seconds.  Estimated final completion at 14:14:40.                                                                                                   Time: 9 of 60.023 seconds.  Estimated final completion at 14:14:43.                                                                                                   Time: 10 of 60.023 seconds.  Estimated final completion at 14:14:39.                                                                                                   Time: 10 of 60.023 seconds.  Estimated final completion at 14:14:49.                                                                                                   Time: 10 of 60.023 seconds.  Estimated final completion at 14:14:47.                                                                                                   Time: 10 of 60.023 seconds.  Estimated final completion at 14:14:39.                                                                                                   Time: 11 of 60.023 seconds.  Estimated final completion at 14:14:38.                                                                                                   Time: 11 of 60.023 seconds.  Estimated final completion at 14:14:40.                                                                                                   Time: 11 of 60.023 seconds.  Estimated final completion at 14:14:40.                                                                                                   Time: 11 of 60.023 seconds.  Estimated final completion at 14:14:41.                                                                                                   Time: 12 of 60.023 seconds.  Estimated final completion at 14:14:41.                                                                                                   Time: 12 of 60.023 seconds.  Estimated final completion at 14:14:42.                                                                                                   Time: 12 of 60.023 seconds.  Estimated final completion at 14:14:39.                                                                                                   Time: 12 of 60.023 seconds.  Estimated final completion at 14:14:39.                                                                                                   Time: 13 of 60.023 seconds.  Estimated final completion at 14:14:38.                                                                                                   Time: 13 of 60.023 seconds.  Estimated final completion at 14:14:41.                                                                                                   Time: 13 of 60.023 seconds.  Estimated final completion at 14:14:41.                                                                                                   Time: 13 of 60.023 seconds.  Estimated final completion at 14:14:41.                                                                                                   Time: 14 of 60.023 seconds.  Estimated final completion at 14:14:38.                                                                                                   Time: 14 of 60.023 seconds.  Estimated final completion at 14:14:41.                                                                                                   Time: 14 of 60.023 seconds.  Estimated final completion at 14:14:38.                                                                                                   Time: 14 of 60.023 seconds.  Estimated final completion at 14:14:38.                                                                                                   Time: 15 of 60.023 seconds.  Estimated final completion at 14:14:38.                                                                                                   Time: 15 of 60.023 seconds.  Estimated final completion at 14:14:40.                                                                                                   Time: 15 of 60.023 seconds.  Estimated final completion at 14:14:39.                                                                                                   Time: 15 of 60.023 seconds.  Estimated final completion at 14:14:41.                                                                                                   Time: 16 of 60.023 seconds.  Estimated final completion at 14:14:39.                                                                                                   Time: 16 of 60.023 seconds.  Estimated final completion at 14:14:41.                                                                                                   Time: 16 of 60.023 seconds.  Estimated final completion at 14:14:38.                                                                                                   Time: 16 of 60.023 seconds.  Estimated final completion at 14:14:41.                                                                                                   Time: 17 of 60.023 seconds.  Estimated final completion at 14:14:39.                                                                                                   Time: 17 of 60.023 seconds.  Estimated final completion at 14:14:47.                                                                                                   Time: 17 of 60.023 seconds.  Estimated final completion at 14:14:42.                                                                                                   Time: 17 of 60.023 seconds.  Estimated final completion at 14:14:41.                                                                                                   Time: 18 of 60.023 seconds.  Estimated final completion at 14:14:38.                                                                                                   Time: 18 of 60.023 seconds.  Estimated final completion at 14:14:41.                                                                                                   Time: 18 of 60.023 seconds.  Estimated final completion at 14:14:39.                                                                                                   Time: 18 of 60.023 seconds.  Estimated final completion at 14:14:39.                                                                                                   Time: 19 of 60.023 seconds.  Estimated final completion at 14:14:38.                                                                                                   Time: 19 of 60.023 seconds.  Estimated final completion at 14:14:42.                                                                                                   Time: 19 of 60.023 seconds.  Estimated final completion at 14:14:41.                                                                                                   Time: 19 of 60.023 seconds.  Estimated final completion at 14:14:40.                                                                                                   Time: 20 of 60.023 seconds.  Estimated final completion at 14:14:40.                                                                                                   Time: 20 of 60.023 seconds.  Estimated final completion at 14:14:44.                                                                                                   Time: 20 of 60.023 seconds.  Estimated final completion at 14:14:39.                                                                                                   Time: 20 of 60.023 seconds.  Estimated final completion at 14:14:39.                                                                                                   Time: 21 of 60.023 seconds.  Estimated final completion at 14:14:38.                                                                                                   Time: 21 of 60.023 seconds.  Estimated final completion at 14:14:42.                                                                                                   Time: 21 of 60.023 seconds.  Estimated final completion at 14:14:41.                                                                                                   Time: 21 of 60.023 seconds.  Estimated final completion at 14:14:41.                                                                                                   Time: 22 of 60.023 seconds.  Estimated final completion at 14:14:39.                                                                                                   Time: 22 of 60.023 seconds.  Estimated final completion at 14:14:41.                                                                                                   Time: 22 of 60.023 seconds.  Estimated final completion at 14:14:40.                                                                                                   Time: 22 of 60.023 seconds.  Estimated final completion at 14:14:39.                                                                                                   Time: 23 of 60.023 seconds.  Estimated final completion at 14:14:39.                                                                                                   Time: 23 of 60.023 seconds.  Estimated final completion at 14:14:42.                                                                                                   Time: 23 of 60.023 seconds.  Estimated final completion at 14:14:39.                                                                                                   Time: 23 of 60.023 seconds.  Estimated final completion at 14:14:39.                                                                                                   Time: 24 of 60.023 seconds.  Estimated final completion at 14:14:40.                                                                                                   Time: 24 of 60.023 seconds.  Estimated final completion at 14:14:40.                                                                                                   Time: 24 of 60.023 seconds.  Estimated final completion at 14:14:39.                                                                                                   Time: 24 of 60.023 seconds.  Estimated final completion at 14:14:39.                                                                                                   Time: 25 of 60.023 seconds.  Estimated final completion at 14:14:39.                                                                                                   Time: 25 of 60.023 seconds.  Estimated final completion at 14:14:40.                                                                                                   Time: 25 of 60.023 seconds.  Estimated final completion at 14:14:42.                                                                                                   Time: 25 of 60.023 seconds.  Estimated final completion at 14:14:39.                                                                                                   Time: 26 of 60.023 seconds.  Estimated final completion at 14:14:44.                                                                                                   Time: 26 of 60.023 seconds.  Estimated final completion at 14:14:44.                                                                                                   Time: 26 of 60.023 seconds.  Estimated final completion at 14:14:40.                                                                                                   Time: 26 of 60.023 seconds.  Estimated final completion at 14:14:39.                                                                                                   Time: 27 of 60.023 seconds.  Estimated final completion at 14:14:42.                                                                                                   Time: 27 of 60.023 seconds.  Estimated final completion at 14:14:43.                                                                                                   Time: 27 of 60.023 seconds.  Estimated final completion at 14:14:44.                                                                                                   Time: 27 of 60.023 seconds.  Estimated final completion at 14:14:46.                                                                                                   Time: 28 of 60.023 seconds.  Estimated final completion at 14:14:45.                                                                                                   Time: 28 of 60.023 seconds.  Estimated final completion at 14:14:41.                                                                                                   Time: 28 of 60.023 seconds.  Estimated final completion at 14:14:45.                                                                                                   Time: 28 of 60.023 seconds.  Estimated final completion at 14:14:43.                                                                                                   Time: 29 of 60.023 seconds.  Estimated final completion at 14:14:42.                                                                                                   Time: 29 of 60.023 seconds.  Estimated final completion at 14:14:39.                                                                                                   Time: 29 of 60.023 seconds.  Estimated final completion at 14:14:40.                                                                                                   Time: 29 of 60.023 seconds.  Estimated final completion at 14:14:42.                                                                                                   Time: 30 of 60.023 seconds.  Estimated final completion at 14:14:39.                                                                                                   Time: 30 of 60.023 seconds.  Estimated final completion at 14:14:39.                                                                                                   Time: 30 of 60.023 seconds.  Estimated final completion at 14:14:39.                                                                                                   Time: 30 of 60.023 seconds.  Estimated final completion at 14:14:40.                                                                                                   Time: 31 of 60.023 seconds.  Estimated final completion at 14:14:41.                                                                                                   Time: 31 of 60.023 seconds.  Estimated final completion at 14:14:40.                                                                                                   Time: 31 of 60.023 seconds.  Estimated final completion at 14:14:39.                                                                                                   Time: 31 of 60.023 seconds.  Estimated final completion at 14:14:43.                                                                                                   Time: 32 of 60.023 seconds.  Estimated final completion at 14:14:39.                                                                                                   Time: 32 of 60.023 seconds.  Estimated final completion at 14:14:40.                                                                                                   Time: 32 of 60.023 seconds.  Estimated final completion at 14:14:39.                                                                                                   Time: 32 of 60.023 seconds.  Estimated final completion at 14:14:40.                                                                                                   Time: 33 of 60.023 seconds.  Estimated final completion at 14:14:41.                                                                                                   Time: 33 of 60.023 seconds.  Estimated final completion at 14:14:39.                                                                                                   Time: 33 of 60.023 seconds.  Estimated final completion at 14:14:39.                                                                                                   Time: 33 of 60.023 seconds.  Estimated final completion at 14:14:43.                                                                                                   Time: 34 of 60.023 seconds.  Estimated final completion at 14:14:39.                                                                                                   Time: 34 of 60.023 seconds.  Estimated final completion at 14:14:39.                                                                                                   Time: 34 of 60.023 seconds.  Estimated final completion at 14:14:40.                                                                                                   Time: 34 of 60.023 seconds.  Estimated final completion at 14:14:41.                                                                                                   Time: 35 of 60.023 seconds.  Estimated final completion at 14:14:41.                                                                                                   Time: 35 of 60.023 seconds.  Estimated final completion at 14:14:41.                                                                                                   Time: 35 of 60.023 seconds.  Estimated final completion at 14:14:42.                                                                                                   Time: 35 of 60.023 seconds.  Estimated final completion at 14:14:47.                                                                                                   Time: 36 of 60.023 seconds.  Estimated final completion at 14:14:43.                                                                                                   Time: 36 of 60.023 seconds.  Estimated final completion at 14:14:47.                                                                                                   Time: 36 of 60.023 seconds.  Estimated final completion at 14:14:48.                                                                                                   Time: 36 of 60.023 seconds.  Estimated final completion at 14:14:47.                                                                                                   Time: 37 of 60.023 seconds.  Estimated final completion at 14:14:52.                                                                                                   Time: 37 of 60.023 seconds.  Estimated final completion at 14:14:47.                                                                                                   Time: 37 of 60.023 seconds.  Estimated final completion at 14:14:48.                                                                                                   Time: 37 of 60.023 seconds.  Estimated final completion at 14:14:47.                                                                                                   Time: 38 of 60.023 seconds.  Estimated final completion at 14:14:42.                                                                                                   Time: 38 of 60.023 seconds.  Estimated final completion at 14:14:41.                                                                                                   Time: 38 of 60.023 seconds.  Estimated final completion at 14:14:47.                                                                                                   Time: 38 of 60.023 seconds.  Estimated final completion at 14:14:45.                                                                                                   Time: 39 of 60.023 seconds.  Estimated final completion at 14:14:44.                                                                                                   Time: 39 of 60.023 seconds.  Estimated final completion at 14:14:43.                                                                                                   Time: 39 of 60.023 seconds.  Estimated final completion at 14:14:45.                                                                                                   Time: 39 of 60.023 seconds.  Estimated final completion at 14:14:44.                                                                                                   Time: 40 of 60.023 seconds.  Estimated final completion at 14:14:48.                                                                                                   Time: 40 of 60.023 seconds.  Estimated final completion at 14:14:45.                                                                                                   Time: 40 of 60.023 seconds.  Estimated final completion at 14:14:44.                                                                                                   Time: 40 of 60.023 seconds.  Estimated final completion at 14:14:47.                                                                                                   Time: 41 of 60.023 seconds.  Estimated final completion at 14:14:46.                                                                                                   Time: 41 of 60.023 seconds.  Estimated final completion at 14:14:43.                                                                                                   Time: 41 of 60.023 seconds.  Estimated final completion at 14:14:47.                                                                                                   Time: 41 of 60.023 seconds.  Estimated final completion at 14:14:44.                                                                                                   Time: 42 of 60.023 seconds.  Estimated final completion at 14:14:46.                                                                                                   Time: 42 of 60.023 seconds.  Estimated final completion at 14:14:45.                                                                                                   Time: 42 of 60.023 seconds.  Estimated final completion at 14:14:46.                                                                                                   Time: 42 of 60.023 seconds.  Estimated final completion at 14:14:47.                                                                                                   Time: 43 of 60.023 seconds.  Estimated final completion at 14:14:46.                                                                                                   Time: 43 of 60.023 seconds.  Estimated final completion at 14:14:42.                                                                                                   Time: 43 of 60.023 seconds.  Estimated final completion at 14:14:42.                                                                                                   Time: 43 of 60.023 seconds.  Estimated final completion at 14:14:42.                                                                                                   Time: 44 of 60.023 seconds.  Estimated final completion at 14:14:42.                                                                                                   Time: 44 of 60.023 seconds.  Estimated final completion at 14:14:43.                                                                                                   Time: 44 of 60.023 seconds.  Estimated final completion at 14:14:43.                                                                                                   Time: 44 of 60.023 seconds.  Estimated final completion at 14:14:45.                                                                                                   Time: 45 of 60.023 seconds.  Estimated final completion at 14:14:45.                                                                                                   Time: 45 of 60.023 seconds.  Estimated final completion at 14:14:42.                                                                                                   Time: 45 of 60.023 seconds.  Estimated final completion at 14:14:42.                                                                                                   Time: 45 of 60.023 seconds.  Estimated final completion at 14:14:43.                                                                                                   Time: 46 of 60.023 seconds.  Estimated final completion at 14:14:42.                                                                                                   Time: 46 of 60.023 seconds.  Estimated final completion at 14:14:42.                                                                                                   Time: 46 of 60.023 seconds.  Estimated final completion at 14:14:42.                                                                                                   Time: 46 of 60.023 seconds.  Estimated final completion at 14:14:43.                                                                                                   Time: 47 of 60.023 seconds.  Estimated final completion at 14:14:42.                                                                                                   Time: 47 of 60.023 seconds.  Estimated final completion at 14:14:42.                                                                                                   Time: 47 of 60.023 seconds.  Estimated final completion at 14:14:42.                                                                                                   Time: 47 of 60.023 seconds.  Estimated final completion at 14:14:43.                                                                                                   Time: 48 of 60.023 seconds.  Estimated final completion at 14:14:42.                                                                                                   Time: 48 of 60.023 seconds.  Estimated final completion at 14:14:42.                                                                                                   Time: 48 of 60.023 seconds.  Estimated final completion at 14:14:42.                                                                                                   Time: 48 of 60.023 seconds.  Estimated final completion at 14:14:43.                                                                                                   Time: 49 of 60.023 seconds.  Estimated final completion at 14:14:42.                                                                                                   Time: 49 of 60.023 seconds.  Estimated final completion at 14:14:42.                                                                                                   Time: 49 of 60.023 seconds.  Estimated final completion at 14:14:42.                                                                                                   Time: 49 of 60.023 seconds.  Estimated final completion at 14:14:43.                                                                                                   Time: 50 of 60.023 seconds.  Estimated final completion at 14:14:42.                                                                                                   Time: 50 of 60.023 seconds.  Estimated final completion at 14:14:42.                                                                                                   Time: 50 of 60.023 seconds.  Estimated final completion at 14:14:42.                                                                                                   Time: 50 of 60.023 seconds.  Estimated final completion at 14:14:43.                                                                                                   Time: 51 of 60.023 seconds.  Estimated final completion at 14:14:43.                                                                                                   Time: 51 of 60.023 seconds.  Estimated final completion at 14:14:42.                                                                                                   Time: 51 of 60.023 seconds.  Estimated final completion at 14:14:43.                                                                                                   Time: 51 of 60.023 seconds.  Estimated final completion at 14:14:43.                                                                                                   Time: 52 of 60.023 seconds.  Estimated final completion at 14:14:42.                                                                                                   Time: 52 of 60.023 seconds.  Estimated final completion at 14:14:42.                                                                                                   Time: 52 of 60.023 seconds.  Estimated final completion at 14:14:43.                                                                                                   Time: 52 of 60.023 seconds.  Estimated final completion at 14:14:42.                                                                                                   Time: 53 of 60.023 seconds.  Estimated final completion at 14:14:42.                                                                                                   Time: 53 of 60.023 seconds.  Estimated final completion at 14:14:42.                                                                                                   Time: 53 of 60.023 seconds.  Estimated final completion at 14:14:43.                                                                                                   Time: 53 of 60.023 seconds.  Estimated final completion at 14:14:42.                                                                                                   Time: 54 of 60.023 seconds.  Estimated final completion at 14:14:43.                                                                                                   Time: 54 of 60.023 seconds.  Estimated final completion at 14:14:42.                                                                                                   Time: 54 of 60.023 seconds.  Estimated final completion at 14:14:43.                                                                                                   Time: 54 of 60.023 seconds.  Estimated final completion at 14:14:42.                                                                                                   Time: 55 of 60.023 seconds.  Estimated final completion at 14:14:42.                                                                                                   Time: 55 of 60.023 seconds.  Estimated final completion at 14:14:43.                                                                                                   Time: 55 of 60.023 seconds.  Estimated final completion at 14:14:42.                                                                                                   Time: 55 of 60.023 seconds.  Estimated final completion at 14:14:42.                                                                                                   Time: 56 of 60.023 seconds.  Estimated final completion at 14:14:42.                                                                                                   Time: 56 of 60.023 seconds.  Estimated final completion at 14:14:43.                                                                                                   Time: 56 of 60.023 seconds.  Estimated final completion at 14:14:42.                                                                                                   Time: 56 of 60.023 seconds.  Estimated final completion at 14:14:42.                                                                                                   Time: 57 of 60.023 seconds.  Estimated final completion at 14:14:42.                                                                                                   Time: 57 of 60.023 seconds.  Estimated final completion at 14:14:42.                                                                                                   Time: 57 of 60.023 seconds.  Estimated final completion at 14:14:43.                                                                                                   Time: 57 of 60.023 seconds.  Estimated final completion at 14:14:43.                                                                                                   Time: 58 of 60.023 seconds.  Estimated final completion at 14:14:43.                                                                                                   Time: 58 of 60.023 seconds.  Estimated final completion at 14:14:43.                                                                                                   Time: 58 of 60.023 seconds.  Estimated final completion at 14:14:43.                                                                                                   Time: 58 of 60.023 seconds.  Estimated final completion at 14:14:42.                                                                                                   Time: 59 of 60.023 seconds.  Estimated final completion at 14:14:43.                                                                                                   Time: 59 of 60.023 seconds.  Estimated final completion at 14:14:43.                                                                                                   Time: 59 of 60.023 seconds.  Estimated final completion at 14:14:43.                                                                                                   Time: 59 of 60.023 seconds.  Estimated final completion at 14:14:43.                                                                                                   Time: 60 of 60.023 seconds.  Estimated final completion at 14:14:43.                                                                                                   Time: 60 of 60.023 seconds.  Estimated final completion at 14:14:43.                                                                                                  

 Total Real Time:       1.5271 minutes
 Total CPU Time:        1.5099 minutes
 Simulation CPU Time:   0.56849 minutes
 Simulated Time:        1 minutes
 Time Ratio (Sim/CPU):  1.759
Program has ended
