
 **************************************************************************************************
 OpenFAST

 Copyright (C) 2026 National Renewable Energy Laboratory
 Copyright (C) 2026 Envision Energy USA LTD

 This program is licensed under Apache License Version 2.0 and comes with ABSOLUTELY NO WARRANTY.
 See the "LICENSE" file distributed with this software for details.
 **************************************************************************************************

 OpenFAST--128-NOTFOUND
 Compile Info:
  - Compiler: GCC version 14.2.0
  - Architecture: 64 bit
  - Precision: double
  - OpenMP: Yes, number of threads: 1/1
  - Date: Feb 18 2026
  - Time: 22:30:31
 Execution Info:
  - Date: 02/18/2026
  - Time: 22:45:22+0000

 OpenFAST input file heading:
     FAST Certification Test #25: NREL 5.0 MW Baseline Wind Turbine with OC4-DeepCwind semi
     configuration, for use in offshore analysis

  Running ElastoDyn.
  Running ServoDyn.
  Running StrucCtrl.
  Time: 0 of 5 seconds.
                                                                                                   Performing linearization 1 at simulation time 0 s. (RotSpeed=12 rpm, BldPitch1=0 deg)            
                                                                                                   Time: 1 of 5 seconds.  Estimated final completion at 22:45:26 (in 0.000 days).                                                                                                                      Time: 2 of 5 seconds.  Estimated final completion at 22:45:23 (in 0.000 days).                                                                                                                      Time: 3 of 5 seconds.  Estimated final completion at 22:45:23 (in 0.000 days).                                                                                                                      Time: 4 of 5 seconds.  Estimated final completion at 22:45:23 (in 0.000 days).                                                                                                                      Time: 5 of 5 seconds.  Estimated final completion at 22:45:23 (in 0.000 days).                                                                                                                     
  Total Real Time:       1.208 seconds
  Total CPU Time:        1.2024 seconds
  Simulation CPU Time:   1.174 seconds
  Simulated Time:        5 seconds
  Time Ratio (Sim/CPU):  4.2588

  OpenFAST terminated normally.

