
 **************************************************************************************************
 OpenFAST

 Copyright (C) 2022 National Renewable Energy Laboratory
 Copyright (C) 2022 Envision Energy USA LTD

 This program is licensed under Apache License Version 2.0 and comes with ABSOLUTELY NO WARRANTY.
 See the "LICENSE" file distributed with this software for details.
 **************************************************************************************************

 OpenFAST-v3.1.0-165-ge514041d-dirty
 Compile Info:
  - Compiler: GCC version 10.3.0
  - Architecture: 64 bit
  - Precision: double
  - OpenMP: No
  - Date: Apr 12 2022
  - Time: 14:37:42
 Execution Info:
  - Date: 06/15/2022
  - Time: 16:51:04-0600

 OpenFAST input file heading:
     FAST Certification Test #18: NREL 5.0 MW Baseline Wind Turbine (Onshore)

 Running SED (v1.00.00, 15-Feb-2022).
 Running AeroDyn.
 AD15 Nodal Outputs: Nodal output section of AeroDyn input file not found or improperly formatted.
 Skipping nodal outputs.
 Warning: Turning off Unsteady Aerodynamics because UA parameters are not included in airfoil
 (airfoil has likely has constant polars). (node 1, blade 1)
 Warning: Turning off Unsteady Aerodynamics because UA parameters are not included in airfoil
 (airfoil has likely has constant polars). (node 2, blade 1)
 Warning: Turning off Unsteady Aerodynamics because UA parameters are not included in airfoil
 (airfoil has likely has constant polars). (node 3, blade 1)
 Warning: Turning off Unsteady Aerodynamics because UA parameters are not included in airfoil
 (airfoil has likely has constant polars). (node 4, blade 1)
 Warning: Turning off Unsteady Aerodynamics because UA parameters are not included in airfoil
 (airfoil has likely has constant polars). (node 1, blade 2)
 Warning: Turning off Unsteady Aerodynamics because UA parameters are not included in airfoil
 (airfoil has likely has constant polars). (node 2, blade 2)
 Warning: Turning off Unsteady Aerodynamics because UA parameters are not included in airfoil
 (airfoil has likely has constant polars). (node 3, blade 2)
 Warning: Turning off Unsteady Aerodynamics because UA parameters are not included in airfoil
 (airfoil has likely has constant polars). (node 4, blade 2)
 Warning: Turning off Unsteady Aerodynamics because UA parameters are not included in airfoil
 (airfoil has likely has constant polars). (node 1, blade 3)
 Warning: Turning off Unsteady Aerodynamics because UA parameters are not included in airfoil
 (airfoil has likely has constant polars). (node 2, blade 3)
 Warning: Turning off Unsteady Aerodynamics because UA parameters are not included in airfoil
 (airfoil has likely has constant polars). (node 3, blade 3)
 Warning: Turning off Unsteady Aerodynamics because UA parameters are not included in airfoil
 (airfoil has likely has constant polars). (node 4, blade 3)
 Running InflowWind.

    Reading a 31x31 grid (145 m wide, 17.5 m to 162.5 m above ground) with a characteristic wind
    speed of 12 m/s. This full-field file was generated by TurbSim (v1.06.00, 21-Sep-2012) on
    07-Jan-2014 at 12:50:45.

    Processed 1442 time steps of 20-Hz full-field data (72.05 seconds).
 Running ServoDyn.
 Running ServoDyn Interface for Bladed Controllers (using GNU Fortran for Linux, ).
 Using legacy Bladed DLL interface.
  Time: 0 of 60 seconds.
                                                                                                   Time: 5 of 60 seconds.  Estimated final completion at 16:51:35.                                                                                                                                     Time: 10 of 60 seconds.  Estimated final completion at 16:51:36.                                                                                                                                    Time: 15 of 60 seconds.  Estimated final completion at 16:51:36.                                                                                                                                    Time: 20 of 60 seconds.  Estimated final completion at 16:51:36.                                                                                                                                    Time: 25 of 60 seconds.  Estimated final completion at 16:51:34.                                                                                                                                    Time: 30 of 60 seconds.  Estimated final completion at 16:51:35.                                                                                                                                    Time: 35 of 60 seconds.  Estimated final completion at 16:51:34.                                                                                                                                    Time: 40 of 60 seconds.  Estimated final completion at 16:51:34.                                                                                                                                    Time: 45 of 60 seconds.  Estimated final completion at 16:51:34.                                                                                                                                    Time: 50 of 60 seconds.  Estimated final completion at 16:51:34.                                                                                                                                    Time: 55 of 60 seconds.  Estimated final completion at 16:51:34.                                                                                                                                    Time: 60 of 60 seconds.  Estimated final completion at 16:51:34.                                                                                                                                   
  Total Real Time:       29.72 seconds
  Total CPU Time:        29.272 seconds
  Simulation CPU Time:   28.816 seconds
  Simulated Time:        60 seconds
  Time Ratio (Sim/CPU):  2.0822

  OpenFAST terminated normally.

