
 **************************************************************************************************
 OpenFAST

 Copyright (C) 2022 National Renewable Energy Laboratory
 Copyright (C) 2022 Envision Energy USA LTD

 This program is licensed under Apache License Version 2.0 and comes with ABSOLUTELY NO WARRANTY.
 See the "LICENSE" file distributed with this software for details.
 **************************************************************************************************

 OpenFAST-v3.2.1-110-gca704ce6-dirty
 Compile Info:
  - Compiler: GCC version 10.3.0
  - Architecture: 64 bit
  - Precision: double
  - OpenMP: No
  - Date: Aug 10 2022
  - Time: 09:19:54
 Execution Info:
  - Date: 08/10/2022
  - Time: 09:28:22-0600

 OpenFAST input file heading:
     FAST Certification Test #18: NREL 5.0 MW Baseline Wind Turbine (Onshore)

 Running SED (v1.00.00, 15-Feb-2022).

 FAST_InitializeAll:SED_Init:SED_ParsePrimaryFileData:ReadOutputList:The maximum number of output
 channels allowed is 12.

 OpenFAST encountered an error during module initialization.
  Simulation error level: FATAL ERROR

  Aborting OpenFAST.

